/*---------------------------------------------------------------------------*\
| =========                 |                                                 |
| \\      /  F ield         | OpenFOAM: The Open Source CFD Toolbox           |
|  \\    /   O peration     | Version:  2506                                  |
|   \\  /    A nd           | Website:  www.openfoam.com                      |
|    \\/     M anipulation  |                                                 |
\*---------------------------------------------------------------------------*/
Build  : _615aae61d7-20250627 OPENFOAM=2506 version=v2506
Arch   : "LSB;label=32;scalar=64"
Exec   : blockMesh
Date   : Mar 19 2026
Time   : 23:30:35
Host   : node015.csf4.local
PID    : 1340153
I/O    : uncollated
Case   : /scratch/g05228sr/mitchExtendDTest
nProcs : 1
trapFpe: Floating point exception trapping enabled (FOAM_SIGFPE).
fileModificationChecking : Monitoring run-time modified files using timeStampMaster (fileModificationSkew 5, maxFileModificationPolls 20)
allowSystemOperations : Allowing user-supplied system call operations

// * * * * * * * * * * * * * * * * * * * * * * * * * * * * * * * * * * * * * //
Create time

Creating block mesh from "system/blockMeshDict"
Using #calc - line 33 in file "system/blockMeshDict"
Using #codeStream with "/scratch/g05228sr/mitchExtendDTest/dynamicCode/platforms/linux64GccDPInt32Opt/lib/libcodeStream_7dff1e25dd1b2e2856b6ef24f43c2307cd74b3d4.so"
Using #calc - line 34 in file "system/blockMeshDict"
Using #codeStream with "/scratch/g05228sr/mitchExtendDTest/dynamicCode/platforms/linux64GccDPInt32Opt/lib/libcodeStream_2c4b7f8c8adad185f081f10944410b2c533844aa.so"
Using #calc - line 35 in file "system/blockMeshDict"
Using #calc - line 37 in file "system/blockMeshDict"
Using #codeStream with "/scratch/g05228sr/mitchExtendDTest/dynamicCode/platforms/linux64GccDPInt32Opt/lib/libcodeStream_b0050684e1aa6c98f294bb407f6936de5bb2eba6.so"
Using #calc - line 38 in file "system/blockMeshDict"
Using #codeStream with "/scratch/g05228sr/mitchExtendDTest/dynamicCode/platforms/linux64GccDPInt32Opt/lib/libcodeStream_ad50a1aed7f044ad22b843ecdd4125d2cb6101e8.so"
Using #calc - line 39 in file "system/blockMeshDict"
Creating block edges
No non-planar block faces defined
Creating topology blocks

Creating topology patches - from boundary section

Creating block mesh topology - scaling/transform applied later

Check topology

	Basic statistics
		Number of internal faces : 0
		Number of boundary faces : 6
		Number of defined boundary faces : 6
		Number of undefined boundary faces : 0
	Checking patch -> block consistency

Creating block offsets
Creating merge list (topological search)...

Creating polyMesh from blockMesh
Creating patches
Creating cells
Creating points with scale (0.001 0.001 0.001)
    Block 0 cell size :
        i : 2e-05 .. 2e-05
        j : 2e-05 .. 2e-05
        k : 2e-05 .. 2e-05

No patch pairs to merge

Writing polyMesh with 0 cellZones
----------------
Mesh Information
----------------
  boundingBox: (-0.0002 -0.0005 -0.0002) (0.0002 6e-05 0.0002)
  nPoints: 12789
  nCells: 11200
  nFaces: 35120
  nInternalFaces: 32080
----------------
Patches
----------------
  patch 0 (start: 32080 size: 560) name: top
  patch 1 (start: 32640 size: 560) name: bottom
  patch 2 (start: 33200 size: 560) name: right
  patch 3 (start: 33760 size: 560) name: left
  patch 4 (start: 34320 size: 400) name: front
  patch 5 (start: 34720 size: 400) name: back

End

/*---------------------------------------------------------------------------*\
| =========                 |                                                 |
| \\      /  F ield         | OpenFOAM: The Open Source CFD Toolbox           |
|  \\    /   O peration     | Version:  2506                                  |
|   \\  /    A nd           | Website:  www.openfoam.com                      |
|    \\/     M anipulation  |                                                 |
\*---------------------------------------------------------------------------*/
Build  : _615aae61d7-20250627 OPENFOAM=2506 version=v2506
Arch   : "LSB;label=32;scalar=64"
Exec   : setFields
Date   : Mar 19 2026
Time   : 23:30:35
Host   : node015.csf4.local
PID    : 1340160
I/O    : uncollated
Case   : /scratch/g05228sr/mitchExtendDTest
nProcs : 1
trapFpe: Floating point exception trapping enabled (FOAM_SIGFPE).
fileModificationChecking : Monitoring run-time modified files using timeStampMaster (fileModificationSkew 5, maxFileModificationPolls 20)
allowSystemOperations : Allowing user-supplied system call operations

// * * * * * * * * * * * * * * * * * * * * * * * * * * * * * * * * * * * * * //
Create time

Create mesh for time = 0

Reading setFieldsDict

Setting volume field default values
    - set internal values of volScalarField: alpha.air = 1
    - set internal values of volScalarField: alpha.metal1 = 0
    - set internal values of volScalarField: alpha.metal2 = 0
    - set internal values of volScalarField: alpha.metal3 = 0
    - set internal values of volScalarField: alpha.metal4 = 0
    - set internal values of volScalarField: alpha.metal1vapour = 0
    - set internal values of volScalarField: alpha.metal2vapour = 0
    - set internal values of volScalarField: alpha.metal3vapour = 0
    - set internal values of volScalarField: alpha.metal4vapour = 0
    - set internal values of volVectorField: U = (0 0 0)

Setting field region values

    Adding cells with centre within boxes 1((-0.5 0 -0.5) (0.5 0.5 0.5))
    Selected 1200/11200 cells
    - set internal values of volScalarField: alpha.air = 0
    - set internal values of volScalarField: alpha.metal1 = 0.685
    - set internal values of volScalarField: alpha.metal2 = 0.17
    - set internal values of volScalarField: alpha.metal3 = 0.12
    - set internal values of volScalarField: alpha.metal4 = 0.025

End

/*---------------------------------------------------------------------------*\
| =========                 |                                                 |
| \\      /  F ield         | OpenFOAM: The Open Source CFD Toolbox           |
|  \\    /   O peration     | Version:  2506                                  |
|   \\  /    A nd           | Website:  www.openfoam.com                      |
|    \\/     M anipulation  |                                                 |
\*---------------------------------------------------------------------------*/
Build  : _615aae61d7-20250627 OPENFOAM=2506 version=v2506
Arch   : "LSB;label=32;scalar=64"
Exec   : decomposePar
Date   : Mar 19 2026
Time   : 23:30:36
Host   : node015.csf4.local
PID    : 1340162
I/O    : uncollated
Case   : /scratch/g05228sr/mitchExtendDTest
nProcs : 1
trapFpe: Floating point exception trapping enabled (FOAM_SIGFPE).
fileModificationChecking : Monitoring run-time modified files using timeStampMaster (fileModificationSkew 5, maxFileModificationPolls 20)
allowSystemOperations : Allowing user-supplied system call operations

// * * * * * * * * * * * * * * * * * * * * * * * * * * * * * * * * * * * * * //
Create time



Decomposing mesh

Create mesh

Calculating distribution of cells
Decomposition method scotch [16] (region region0)

Finished decomposition in 0.03 s

Calculating original mesh data

Distributing cells to processors

Distributing faces to processors

Distributing points to processors

Constructing processor meshes

Processor 0
    Number of cells = 700
    Number of points = 968
    Number of faces shared with processor 1 = 100
    Number of faces shared with processor 2 = 70
    Number of faces shared with processor 6 = 70
    Number of faces shared with processor 14 = 100
    Number of processor patches = 4
    Number of processor faces = 340
    Number of boundary faces = 140

Processor 1
    Number of cells = 700
    Number of points = 968
    Number of faces shared with processor 0 = 100
    Number of faces shared with processor 3 = 70
    Number of faces shared with processor 7 = 70
    Number of processor patches = 3
    Number of processor faces = 240
    Number of boundary faces = 240

Processor 2
    Number of cells = 700
    Number of points = 968
    Number of faces shared with processor 0 = 70
    Number of faces shared with processor 3 = 100
    Number of faces shared with processor 4 = 70
    Number of faces shared with processor 12 = 100
    Number of processor patches = 4
    Number of processor faces = 340
    Number of boundary faces = 140

Processor 3
    Number of cells = 700
    Number of points = 968
    Number of faces shared with processor 1 = 70
    Number of faces shared with processor 2 = 100
    Number of faces shared with processor 5 = 70
    Number of processor patches = 3
    Number of processor faces = 240
    Number of boundary faces = 240

Processor 4
    Number of cells = 700
    Number of points = 968
    Number of faces shared with processor 2 = 70
    Number of faces shared with processor 5 = 100
    Number of faces shared with processor 6 = 70
    Number of faces shared with processor 11 = 100
    Number of processor patches = 4
    Number of processor faces = 340
    Number of boundary faces = 140

Processor 5
    Number of cells = 700
    Number of points = 968
    Number of faces shared with processor 3 = 70
    Number of faces shared with processor 4 = 100
    Number of faces shared with processor 7 = 70
    Number of processor patches = 3
    Number of processor faces = 240
    Number of boundary faces = 240

Processor 6
    Number of cells = 700
    Number of points = 968
    Number of faces shared with processor 0 = 70
    Number of faces shared with processor 4 = 70
    Number of faces shared with processor 7 = 100
    Number of faces shared with processor 9 = 100
    Number of processor patches = 4
    Number of processor faces = 340
    Number of boundary faces = 140

Processor 7
    Number of cells = 700
    Number of points = 968
    Number of faces shared with processor 1 = 70
    Number of faces shared with processor 5 = 70
    Number of faces shared with processor 6 = 100
    Number of processor patches = 3
    Number of processor faces = 240
    Number of boundary faces = 240

Processor 8
    Number of cells = 700
    Number of points = 968
    Number of faces shared with processor 9 = 100
    Number of faces shared with processor 10 = 70
    Number of faces shared with processor 15 = 70
    Number of processor patches = 3
    Number of processor faces = 240
    Number of boundary faces = 240

Processor 9
    Number of cells = 700
    Number of points = 968
    Number of faces shared with processor 6 = 100
    Number of faces shared with processor 8 = 100
    Number of faces shared with processor 11 = 70
    Number of faces shared with processor 14 = 70
    Number of processor patches = 4
    Number of processor faces = 340
    Number of boundary faces = 140

Processor 10
    Number of cells = 700
    Number of points = 968
    Number of faces shared with processor 8 = 70
    Number of faces shared with processor 11 = 100
    Number of faces shared with processor 13 = 70
    Number of processor patches = 3
    Number of processor faces = 240
    Number of boundary faces = 240

Processor 11
    Number of cells = 700
    Number of points = 968
    Number of faces shared with processor 4 = 100
    Number of faces shared with processor 9 = 70
    Number of faces shared with processor 10 = 100
    Number of faces shared with processor 12 = 70
    Number of processor patches = 4
    Number of processor faces = 340
    Number of boundary faces = 140

Processor 12
    Number of cells = 700
    Number of points = 968
    Number of faces shared with processor 2 = 100
    Number of faces shared with processor 11 = 70
    Number of faces shared with processor 13 = 100
    Number of faces shared with processor 14 = 70
    Number of processor patches = 4
    Number of processor faces = 340
    Number of boundary faces = 140

Processor 13
    Number of cells = 700
    Number of points = 968
    Number of faces shared with processor 10 = 70
    Number of faces shared with processor 12 = 100
    Number of faces shared with processor 15 = 70
    Number of processor patches = 3
    Number of processor faces = 240
    Number of boundary faces = 240

Processor 14
    Number of cells = 700
    Number of points = 968
    Number of faces shared with processor 0 = 100
    Number of faces shared with processor 9 = 70
    Number of faces shared with processor 12 = 70
    Number of faces shared with processor 15 = 100
    Number of processor patches = 4
    Number of processor faces = 340
    Number of boundary faces = 140

Processor 15
    Number of cells = 700
    Number of points = 968
    Number of faces shared with processor 8 = 70
    Number of faces shared with processor 13 = 70
    Number of faces shared with processor 14 = 100
    Number of processor patches = 3
    Number of processor faces = 240
    Number of boundary faces = 240

Number of processor faces = 2320
Max number of cells = 700 (0% above average 700)
Max number of processor patches = 4 (14.2857% above average 3.5)
Max number of faces between processors = 340 (17.2414% above average 290)

Time = 0

Processor 0: field transfer
Processor 1: field transfer
Processor 2: field transfer
Processor 3: field transfer
Processor 4: field transfer
Processor 5: field transfer
Processor 6: field transfer
Processor 7: field transfer
Processor 8: field transfer
Processor 9: field transfer
Processor 10: field transfer
Processor 11: field transfer
Processor 12: field transfer
Processor 13: field transfer
Processor 14: field transfer
Processor 15: field transfer

End

(Number of slurm ntasks = 16)
/*---------------------------------------------------------------------------*\
| =========                 |                                                 |
| \\      /  F ield         | OpenFOAM: The Open Source CFD Toolbox           |
|  \\    /   O peration     | Version:  2506                                  |
|   \\  /    A nd           | Website:  www.openfoam.com                      |
|    \\/     M anipulation  |                                                 |
\*---------------------------------------------------------------------------*/
Build  : _615aae61d7-20250627 OPENFOAM=2506 version=v2506
Arch   : "LSB;label=32;scalar=64"
Exec   : compressiblelaserbeamFoam -parallel
Date   : Mar 19 2026
Time   : 23:30:49
Host   : node015.csf4.local
PID    : 1340199
I/O    : uncollated
Case   : /scratch/g05228sr/mitchExtendDTest
nProcs : 16
Hosts  :
(
    (node015.csf4.local 16)
)
Pstream initialized with:
    node communication : off [type=host] (16 ranks, 1 nodes)
    topology controls  : none
    consensus exchange : 0 (tuning: 0)
    exchange algorithm : 0
    commsType          : nonBlocking
    polling iterations : 0
trapFpe: Floating point exception trapping enabled (FOAM_SIGFPE).
fileModificationChecking : Monitoring run-time modified files using timeStampMaster (fileModificationSkew 5, maxFileModificationPolls 20)
allowSystemOperations : Allowing user-supplied system call operations

// * * * * * * * * * * * * * * * * * * * * * * * * * * * * * * * * * * * * * //
Create time

Create mesh for time = 0

Selecting dynamicFvMesh dynamicRefineFvMesh

PIMPLE: Operating solver in PISO mode

Reading field p_rgh

Reading field U

Reading/calculating face flux field phi

Constructing multiphaseMixtureThermo

Selecting thermodynamics package 
{
    type            heRhoThermo;
    mixture         pureMixture;
    transport       const;
    thermo          hConst;
    equationOfState adiabaticPerfectFluid;
    specie          specie;
    energy          sensibleInternalEnergy;
}

Phase metal1 state: condensed
Selecting thermodynamics package 
{
    type            heRhoThermo;
    mixture         pureMixture;
    transport       const;
    thermo          eConst;
    equationOfState perfectFluid;
    specie          specie;
    energy          sensibleInternalEnergy;
}

Phase metal1vapour state: gaseous
Selecting thermodynamics package 
{
    type            heRhoThermo;
    mixture         pureMixture;
    transport       const;
    thermo          hConst;
    equationOfState adiabaticPerfectFluid;
    specie          specie;
    energy          sensibleInternalEnergy;
}

Phase metal2 state: condensed
Selecting thermodynamics package 
{
    type            heRhoThermo;
    mixture         pureMixture;
    transport       const;
    thermo          eConst;
    equationOfState perfectFluid;
    specie          specie;
    energy          sensibleInternalEnergy;
}

Phase metal2vapour state: gaseous
Selecting thermodynamics package 
{
    type            heRhoThermo;
    mixture         pureMixture;
    transport       const;
    thermo          hConst;
    equationOfState adiabaticPerfectFluid;
    specie          specie;
    energy          sensibleInternalEnergy;
}

Phase metal3 state: condensed
Selecting thermodynamics package 
{
    type            heRhoThermo;
    mixture         pureMixture;
    transport       const;
    thermo          eConst;
    equationOfState perfectFluid;
    specie          specie;
    energy          sensibleInternalEnergy;
}

Phase metal3vapour state: gaseous
Selecting thermodynamics package 
{
    type            heRhoThermo;
    mixture         pureMixture;
    transport       const;
    thermo          hConst;
    equationOfState adiabaticPerfectFluid;
    specie          specie;
    energy          sensibleInternalEnergy;
}

Phase metal4 state: condensed
Selecting thermodynamics package 
{
    type            heRhoThermo;
    mixture         pureMixture;
    transport       const;
    thermo          eConst;
    equationOfState perfectFluid;
    specie          specie;
    energy          sensibleInternalEnergy;
}

Phase metal4vapour state: gaseous
Selecting thermodynamics package 
{
    type            heRhoThermo;
    mixture         pureMixture;
    transport       const;
    thermo          hConst;
    equationOfState perfectGas;
    specie          specie;
    energy          sensibleInternalEnergy;
}

Phase air state: gaseous

Reading g

Reading hRef
Calculating field g.h

Selecting turbulence model type laminar
Selecting laminar stress model Stokes
radialPolarHeatSource = true
Scaled global mesh bounding box: (-0.00020796 -0.00050796 -0.00020796) (0.00020796 6.79599e-05 0.00020796)
No MRF models present

Creating field kinetic energy K

GAMGPCG:  Solving for pcorr, Initial residual = 0, Final residual = 0, No Iterations 0
GAMGPCG:  Solving for pcorr, Initial residual = 0, Final residual = 0, No Iterations 0
Corrected phi for Dilation
time step continuity errors : sum local = 0, global = 0, cumulative = 0
Constructing face velocity Uf

Courant Number mean: 0 max: 0

Starting time loop

Courant Number mean: 0 max: 0
Interface Courant Number mean: 0 max: 0
deltaT = 1e-10
Time = 1e-10

PIMPLE: iteration 1
Selected 1600 cells for refinement out of 11200.
Refined from 11200 to 22400 cells.
Selected 0 split points out of a possible 1600.
Execution time for mesh.update() = 0.03 s
GAMGPCG:  Solving for pcorr, Initial residual = 0, Final residual = 0, No Iterations 0
GAMGPCG:  Solving for pcorr, Initial residual = 0, Final residual = 0, No Iterations 0
Corrected phi for Dilation
time step continuity errors : sum local = 0, global = 0, cumulative = 0
Liquid-Vapour State Transition: (Liquid,Vapour): (metal1,metal1vapour)  Boiling Temperature: pair_boil_T [0 0 0 1 0 0 0] 3134K
Liquid-Vapour State Transition: (Liquid,Vapour): (metal2,metal2vapour)  Boiling Temperature: pair_boil_T [0 0 0 1 0 0 0] 2944K
Liquid-Vapour State Transition: (Liquid,Vapour): (metal3,metal3vapour)  Boiling Temperature: pair_boil_T [0 0 0 1 0 0 0] 3186K
Liquid-Vapour State Transition: (Liquid,Vapour): (metal4,metal4vapour)  Boiling Temperature: pair_boil_T [0 0 0 1 0 0 0] 4912K
MULES: Solving for alpha.metal1
metal1 volume fraction, min, max = 0.0733929 0 0.685
MULES: Solving for alpha.metal1vapour
metal1vapour volume fraction, min, max = 0 0 0
MULES: Solving for alpha.metal2
metal2 volume fraction, min, max = 0.0182143 0 0.17
MULES: Solving for alpha.metal2vapour
metal2vapour volume fraction, min, max = 0 0 0
MULES: Solving for alpha.metal3
metal3 volume fraction, min, max = 0.0128571 0 0.12
MULES: Solving for alpha.metal3vapour
metal3vapour volume fraction, min, max = 0 0 0
MULES: Solving for alpha.metal4
metal4 volume fraction, min, max = 0.00267857 0 0.025
MULES: Solving for alpha.metal4vapour
metal4vapour volume fraction, min, max = 0 0 0
MULES: Solving for alpha.air
air volume fraction, min, max = 0.892857 0 1
Phase-sum volume fraction, min, max = 1 1 1
Phase pair (liquid + vapor) masses in domain:
    metal1 + metal1vapour: 5.17531e-08 kg (liquid: 5.17531e-08 kg, vapor: 0 kg)
    metal2 + metal2vapour: 1.17341e-08 kg (liquid: 1.17341e-08 kg, vapor: 0 kg)
    metal3 + metal3vapour: 1.02528e-08 kg (liquid: 1.02528e-08 kg, vapor: 0 kg)
    metal4 + metal4vapour: 2.4672e-09 kg (liquid: 2.4672e-09 kg, vapor: 0 kg)
    air: 1.28124e-10 kg
diagonal:  Solving for rho, Initial residual = 0, Final residual = 0, No Iterations 0
Updating deposition
Laser: laser0
    mean position = (0 -2e-05 0)
    power = 200000
    position including any oscillation = (0 -2e-05 0)
    Perturbation vector for ray seed points = (0 3.16228e-13 -3.16228e-13)
nRadial: 50
nAngular: 360
    Total rays: 18000, local particles: 0
    Total Q deposited: 0
smoothSolver:  Solving for Ux, Initial residual = 0.00927601, Final residual = 1.25854e-09, No Iterations 1
smoothSolver:  Solving for Uy, Initial residual = 0.997442, Final residual = 8.06637e-12, No Iterations 2
smoothSolver:  Solving for Uz, Initial residual = 0.0093277, Final residual = 1.56184e-09, No Iterations 1
smoothSolver:  Solving for T, Initial residual = 0.844516, Final residual = 0.839206, No Iterations 1000
Correcting epsilon1, mean residual = 0, max residual = 0
GAMG:  Solving for p_rgh, Initial residual = 0.65777, Final residual = 0, No Iterations 1
GAMG:  Solving for p_rgh, Initial residual = 0, Final residual = 0, No Iterations 0
max(U) 8.34053e-16
min(p_rgh) 100000
min(T) 300
GAMG:  Solving for p_rgh, Initial residual = 0.115603, Final residual = 0, No Iterations 1
GAMG:  Solving for p_rgh, Initial residual = 0, Final residual = 0, No Iterations 0
max(U) 8.63999e-16
min(p_rgh) 100000
min(T) 300
GAMG:  Solving for p_rgh, Initial residual = 0.0612159, Final residual = 0, No Iterations 1
GAMGPCG:  Solving for p_rgh, Initial residual = 0, Final residual = 0, No Iterations 0
max(U) 8.34053e-16
min(p_rgh) 100000
min(T) 300
ExecutionTime = 2.14 s  ClockTime = 3 s

fieldMinMax fieldMinMax write:
    min(T) = 300 in cell 122 at location (-0.000155 2.5e-05 2.5e-05) on processor 8
    max(T) = 300 in cell 9 at location (0.00019 -0.00035 1e-05) on processor 0
    min(mag(U)) = 0 in cell 630 at location (1e-05 -0.00035 0.0002) on processor 0
    max(mag(U)) = 8.34053e-16 in cell 820 at location (0.000145 -5e-06 -0.000195) on processor 13
    min(p) = 100000 in cell 0 at location (1e-05 -0.0005 1e-05) on processor 1
    max(p) = 100005 in cell 61 at location (-0.00017 6e-05 1e-05) on processor 8

Courant Number mean: 9.13038e-22 max: 1.42759e-20
Interface Courant Number mean: 9.23691e-24 max: 4.08118e-21
deltaT = 1e-10
Time = 2e-10

PIMPLE: iteration 1
Selected 6400 cells for refinement out of 22400.
Refined from 22400 to 67200 cells.
Selected 0 split points out of a possible 7200.
Execution time for mesh.update() = 0.13 s
GAMGPCG:  Solving for pcorr, Initial residual = 0.001953, Final residual = 4.47652e-06, No Iterations 1
GAMGPCG:  Solving for pcorr, Initial residual = 4.50946e-06, Final residual = 4.50946e-06, No Iterations 0
Corrected phi for Dilation
time step continuity errors : sum local = 5.04073e-26, global = -1.61268e-27, cumulative = -1.61268e-27
Liquid-Vapour State Transition: (Liquid,Vapour): (metal1,metal1vapour)  Boiling Temperature: pair_boil_T [0 0 0 1 0 0 0] 3134K
Liquid-Vapour State Transition: (Liquid,Vapour): (metal2,metal2vapour)  Boiling Temperature: pair_boil_T [0 0 0 1 0 0 0] 2944K
Liquid-Vapour State Transition: (Liquid,Vapour): (metal3,metal3vapour)  Boiling Temperature: pair_boil_T [0 0 0 1 0 0 0] 3186K
Liquid-Vapour State Transition: (Liquid,Vapour): (metal4,metal4vapour)  Boiling Temperature: pair_boil_T [0 0 0 1 0 0 0] 4912K
MULES: Solving for alpha.metal1
metal1 volume fraction, min, max = 0.0733929 -1.09476e-42 0.685
MULES: Solving for alpha.metal1vapour
metal1vapour volume fraction, min, max = 0 0 0
MULES: Solving for alpha.metal2
metal2 volume fraction, min, max = 0.0182143 -2.73691e-43 0.17
MULES: Solving for alpha.metal2vapour
metal2vapour volume fraction, min, max = 0 0 0
MULES: Solving for alpha.metal3
metal3 volume fraction, min, max = 0.0128571 -1.36846e-43 0.12
MULES: Solving for alpha.metal3vapour
metal3vapour volume fraction, min, max = 0 0 0
MULES: Solving for alpha.metal4
metal4 volume fraction, min, max = 0.00267857 -3.42114e-44 0.025
MULES: Solving for alpha.metal4vapour
metal4vapour volume fraction, min, max = 0 0 0
MULES: Solving for alpha.air
air volume fraction, min, max = 0.892857 0 1
Phase-sum volume fraction, min, max = 1 1 1
Phase pair (liquid + vapor) masses in domain:
    metal1 + metal1vapour: 5.17531e-08 kg (liquid: 5.17531e-08 kg, vapor: 0 kg)
    metal2 + metal2vapour: 1.17341e-08 kg (liquid: 1.17341e-08 kg, vapor: 0 kg)
    metal3 + metal3vapour: 1.02528e-08 kg (liquid: 1.02528e-08 kg, vapor: 0 kg)
    metal4 + metal4vapour: 2.4672e-09 kg (liquid: 2.4672e-09 kg, vapor: 0 kg)
    air: 1.28124e-10 kg
diagonal:  Solving for rho, Initial residual = 0, Final residual = 0, No Iterations 0
Updating deposition
Laser: laser0
    mean position = (0 -2e-05 0)
    power = 200000
    position including any oscillation = (0 -2e-05 0)
    Perturbation vector for ray seed points = (0 1.58114e-13 -1.58114e-13)
nRadial: 50
nAngular: 360
    Total rays: 18000, local particles: 0
    Total Q deposited: 0
smoothSolver:  Solving for Ux, Initial residual = 9.39671e-06, Final residual = 1.29474e-11, No Iterations 1
smoothSolver:  Solving for Uy, Initial residual = 1.85772e-07, Final residual = 2.51984e-13, No Iterations 1
smoothSolver:  Solving for Uz, Initial residual = 2.15669e-06, Final residual = 2.98178e-12, No Iterations 1
smoothSolver:  Solving for T, Initial residual = 0.380171, Final residual = 0.441638, No Iterations 1000
Correcting epsilon1, mean residual = 0, max residual = 0
GAMG:  Solving for p_rgh, Initial residual = 1, Final residual = 1.83297e-16, No Iterations 1
GAMG:  Solving for p_rgh, Initial residual = 8.93036e-19, Final residual = 8.93036e-19, No Iterations 0
max(U) 2.38641e-06
min(p_rgh) 99996.1
min(T) 300
GAMG:  Solving for p_rgh, Initial residual = 3.16015e-11, Final residual = 3.16015e-11, No Iterations 0
GAMG:  Solving for p_rgh, Initial residual = 3.16015e-11, Final residual = 3.16015e-11, No Iterations 0
max(U) 2.38695e-06
min(p_rgh) 99996.1
min(T) 300
GAMG:  Solving for p_rgh, Initial residual = 3.1603e-11, Final residual = 3.1603e-11, No Iterations 0
GAMGPCG:  Solving for p_rgh, Initial residual = 3.1603e-11, Final residual = 3.1603e-11, No Iterations 0
max(U) 2.38695e-06
min(p_rgh) 99996.1
min(T) 300
ExecutionTime = 5.9 s  ClockTime = 7 s

fieldMinMax fieldMinMax write:
    min(T) = 300 in cell 14598 at location (-4.75e-05 1.75e-05 0.0001975) on processor 8
    max(T) = 300 in cell 9 at location (0.00019 -0.00035 1e-05) on processor 0
    min(mag(U)) = 0 in cell 630 at location (1e-05 -0.00035 0.0002) on processor 0
    max(mag(U)) = 2.38695e-06 in cell 1391 at location (0.0001625 -2.5e-06 -0.0001425) on processor 13
    min(p) = 99999.8 in cell 5789 at location (-3.25e-05 1.25e-05 7.5e-06) on processor 8
    max(p) = 100001 in cell 481 at location (-0.00017 6e-05 0.00013) on processor 8

Courant Number mean: 4.35348e-13 max: 2.38705e-11
Interface Courant Number mean: 2.13093e-13 max: 2.38665e-11
deltaT = 1e-10
Time = 3e-10

PIMPLE: iteration 1
Selected 25600 cells for refinement out of 67200.
Refined from 67200 to 246400 cells.
Selected 0 split points out of a possible 29600.
Execution time for mesh.update() = 0.47 s
GAMGPCG:  Solving for pcorr, Initial residual = 0.999997, Final residual = 1.87418e-08, No Iterations 1
GAMGPCG:  Solving for pcorr, Initial residual = 0.00293124, Final residual = 1.33705e-06, No Iterations 3
Corrected phi for Dilation
time step continuity errors : sum local = 4.12245e-26, global = -2.63198e-27, cumulative = -4.24466e-27
Liquid-Vapour State Transition: (Liquid,Vapour): (metal1,metal1vapour)  Boiling Temperature: pair_boil_T [0 0 0 1 0 0 0] 3134K
Liquid-Vapour State Transition: (Liquid,Vapour): (metal2,metal2vapour)  Boiling Temperature: pair_boil_T [0 0 0 1 0 0 0] 2944K
Liquid-Vapour State Transition: (Liquid,Vapour): (metal3,metal3vapour)  Boiling Temperature: pair_boil_T [0 0 0 1 0 0 0] 3186K
Liquid-Vapour State Transition: (Liquid,Vapour): (metal4,metal4vapour)  Boiling Temperature: pair_boil_T [0 0 0 1 0 0 0] 4912K
MULES: Solving for alpha.metal1
metal1 volume fraction, min, max = 0.0733929 -1.09476e-42 0.685
MULES: Solving for alpha.metal1vapour
metal1vapour volume fraction, min, max = 0 0 0
MULES: Solving for alpha.metal2
metal2 volume fraction, min, max = 0.0182143 -2.73691e-43 0.17
MULES: Solving for alpha.metal2vapour
metal2vapour volume fraction, min, max = 0 0 0
MULES: Solving for alpha.metal3
metal3 volume fraction, min, max = 0.0128571 -1.36846e-43 0.12
MULES: Solving for alpha.metal3vapour
metal3vapour volume fraction, min, max = 0 0 0
MULES: Solving for alpha.metal4
metal4 volume fraction, min, max = 0.00267857 -3.42114e-44 0.025
MULES: Solving for alpha.metal4vapour
metal4vapour volume fraction, min, max = 0 0 0
MULES: Solving for alpha.air
air volume fraction, min, max = 0.892857 0 1
Phase-sum volume fraction, min, max = 1 1 1
Phase pair (liquid + vapor) masses in domain:
    metal1 + metal1vapour: 5.17531e-08 kg (liquid: 5.17531e-08 kg, vapor: 0 kg)
    metal2 + metal2vapour: 1.17341e-08 kg (liquid: 1.17341e-08 kg, vapor: 0 kg)
    metal3 + metal3vapour: 1.02528e-08 kg (liquid: 1.02528e-08 kg, vapor: 0 kg)
    metal4 + metal4vapour: 2.4672e-09 kg (liquid: 2.4672e-09 kg, vapor: 0 kg)
    air: 1.28124e-10 kg
diagonal:  Solving for rho, Initial residual = 0, Final residual = 0, No Iterations 0
Updating deposition
Laser: laser0
    mean position = (0 -2e-05 0)
    power = 200000
    position including any oscillation = (0 -2e-05 0)
    Perturbation vector for ray seed points = (0 7.90569e-14 -7.90569e-14)
nRadial: 50
nAngular: 360
    Total rays: 18000, local particles: 0
    Total Q deposited: 0
smoothSolver:  Solving for Ux, Initial residual = 0.0131108, Final residual = 6.16734e-12, No Iterations 2
smoothSolver:  Solving for Uy, Initial residual = 1.317e-08, Final residual = 4.77129e-14, No Iterations 1
smoothSolver:  Solving for Uz, Initial residual = 0.00283891, Final residual = 8.11263e-09, No Iterations 1
smoothSolver:  Solving for T, Initial residual = 0.190851, Final residual = 0.195568, No Iterations 1000
Correcting epsilon1, mean residual = 0, max residual = 0
GAMG:  Solving for p_rgh, Initial residual = 1.97819e-05, Final residual = 2.23703e-17, No Iterations 1
GAMG:  Solving for p_rgh, Initial residual = 2.26022e-17, Final residual = 2.26022e-17, No Iterations 0
max(U) 4.30704e-06
min(p_rgh) 99996.1
min(T) 300
GAMG:  Solving for p_rgh, Initial residual = 1.33913e-10, Final residual = 1.33913e-10, No Iterations 0
GAMG:  Solving for p_rgh, Initial residual = 1.33913e-10, Final residual = 1.33913e-10, No Iterations 0
max(U) 4.30468e-06
min(p_rgh) 99996.1
min(T) 300
GAMG:  Solving for p_rgh, Initial residual = 1.3411e-10, Final residual = 1.3411e-10, No Iterations 0
GAMGPCG:  Solving for p_rgh, Initial residual = 1.3411e-10, Final residual = 1.3411e-10, No Iterations 0
max(U) 4.30468e-06
min(p_rgh) 99996.1
min(T) 300
ExecutionTime = 17.75 s  ClockTime = 18 s

fieldMinMax fieldMinMax write:
    min(T) = 300 in cell 929 at location (-0.000155 3.5e-05 1.5e-05) on processor 8
    max(T) = 300 in cell 35 at location (0.00011 -0.00043 1e-05) on processor 1
    min(mag(U)) = 0 in cell 630 at location (1e-05 -0.00035 0.0002) on processor 0
    max(mag(U)) = 4.30468e-06 in cell 835 at location (1.25e-06 -1.25e-06 1.25e-06) on processor 8
    min(p) = 99999.9 in cell 38793 at location (-1.25e-06 6.25e-06 -0.00013625) on processor 10
    max(p) = 100001 in cell 481 at location (-0.00017 6e-05 0.00013) on processor 8

Courant Number mean: 1.55127e-12 max: 1.71502e-10
Interface Courant Number mean: 6.25495e-13 max: 1.4011e-10
deltaT = 1e-10
Time = 4e-10

PIMPLE: iteration 1
Selected 102400 cells for refinement out of 246400.
Refined from 246400 to 963200 cells.
Selected 0 split points out of a possible 119200.
Execution time for mesh.update() = 1.94 s
GAMGPCG:  Solving for pcorr, Initial residual = 0.999999, Final residual = 1.1237e-07, No Iterations 1
GAMGPCG:  Solving for pcorr, Initial residual = 0.0091563, Final residual = 8.37926e-06, No Iterations 3
Corrected phi for Dilation
time step continuity errors : sum local = 9.61818e-25, global = 7.42931e-26, cumulative = 7.00484e-26
Liquid-Vapour State Transition: (Liquid,Vapour): (metal1,metal1vapour)  Boiling Temperature: pair_boil_T [0 0 0 1 0 0 0] 3134K
Liquid-Vapour State Transition: (Liquid,Vapour): (metal2,metal2vapour)  Boiling Temperature: pair_boil_T [0 0 0 1 0 0 0] 2944K
Liquid-Vapour State Transition: (Liquid,Vapour): (metal3,metal3vapour)  Boiling Temperature: pair_boil_T [0 0 0 1 0 0 0] 3186K
Liquid-Vapour State Transition: (Liquid,Vapour): (metal4,metal4vapour)  Boiling Temperature: pair_boil_T [0 0 0 1 0 0 0] 4912K
MULES: Solving for alpha.metal1
metal1 volume fraction, min, max = 0.0733929 -1.09476e-42 0.685
MULES: Solving for alpha.metal1vapour
metal1vapour volume fraction, min, max = 0 0 0
MULES: Solving for alpha.metal2
metal2 volume fraction, min, max = 0.0182143 -2.73692e-43 0.17
MULES: Solving for alpha.metal2vapour
metal2vapour volume fraction, min, max = 0 0 0
MULES: Solving for alpha.metal3
metal3 volume fraction, min, max = 0.0128571 -1.36846e-43 0.12
MULES: Solving for alpha.metal3vapour
metal3vapour volume fraction, min, max = 0 0 0
MULES: Solving for alpha.metal4
metal4 volume fraction, min, max = 0.00267857 -3.42116e-44 0.025
MULES: Solving for alpha.metal4vapour
metal4vapour volume fraction, min, max = 0 0 0
MULES: Solving for alpha.air
air volume fraction, min, max = 0.892857 -4.36015e-101 1
Phase-sum volume fraction, min, max = 1 1 1
Phase pair (liquid + vapor) masses in domain:
    metal1 + metal1vapour: 5.17531e-08 kg (liquid: 5.17531e-08 kg, vapor: 0 kg)
    metal2 + metal2vapour: 1.17341e-08 kg (liquid: 1.17341e-08 kg, vapor: 0 kg)
    metal3 + metal3vapour: 1.02528e-08 kg (liquid: 1.02528e-08 kg, vapor: 0 kg)
    metal4 + metal4vapour: 2.4672e-09 kg (liquid: 2.4672e-09 kg, vapor: 0 kg)
    air: 1.28124e-10 kg
diagonal:  Solving for rho, Initial residual = 0, Final residual = 0, No Iterations 0
Updating deposition
Laser: laser0
    mean position = (0 -2e-05 0)
    power = 200000
    position including any oscillation = (0 -2e-05 0)
    Perturbation vector for ray seed points = (0 3.95285e-14 -3.95285e-14)
nRadial: 50
nAngular: 360
    Total rays: 18000, local particles: 0
    Total Q deposited: 0
smoothSolver:  Solving for Ux, Initial residual = 0.0131754, Final residual = 3.41075e-11, No Iterations 2
smoothSolver:  Solving for Uy, Initial residual = 2.03291e-09, Final residual = 2.03291e-09, No Iterations 0
smoothSolver:  Solving for Uz, Initial residual = 0.00478921, Final residual = 1.2398e-11, No Iterations 2
smoothSolver:  Solving for T, Initial residual = 0.165203, Final residual = 0.160125, No Iterations 1000
Correcting epsilon1, mean residual = 0, max residual = 0
GAMG:  Solving for p_rgh, Initial residual = 1.11653e-05, Final residual = 9.87598e-15, No Iterations 1
GAMG:  Solving for p_rgh, Initial residual = 2.77361e-13, Final residual = 2.77361e-13, No Iterations 0
max(U) 4.30422e-06
min(p_rgh) 99996.1
min(T) 300
GAMG:  Solving for p_rgh, Initial residual = 3.96817e-10, Final residual = 3.96817e-10, No Iterations 0
GAMG:  Solving for p_rgh, Initial residual = 3.96817e-10, Final residual = 3.96817e-10, No Iterations 0
max(U) 4.30325e-06
min(p_rgh) 99996.1
min(T) 300
GAMG:  Solving for p_rgh, Initial residual = 3.98367e-10, Final residual = 3.98367e-10, No Iterations 0
GAMGPCG:  Solving for p_rgh, Initial residual = 3.98367e-10, Final residual = 3.98367e-10, No Iterations 0
max(U) 4.30324e-06
min(p_rgh) 99996.1
min(T) 300
ExecutionTime = 72.82 s  ClockTime = 74 s

fieldMinMax fieldMinMax write:
    min(T) = 300 in cell 929 at location (-0.000155 3.5e-05 1.5e-05) on processor 8
    max(T) = 300 in cell 14 at location (9e-05 -0.00047 1e-05) on processor 1
    min(mag(U)) = 0 in cell 630 at location (1e-05 -0.00035 0.0002) on processor 0
    max(mag(U)) = 4.30324e-06 in cell 60460 at location (6.25e-07 -1.875e-06 6.25e-07) on processor 8
    min(p) = 100000 in cell 119679 at location (-0.000196875 3.125e-06 0.000196875) on processor 8
    max(p) = 100001 in cell 481 at location (-0.00017 6e-05 0.00013) on processor 8

Courant Number mean: 4.52188e-12 max: 7.12938e-10
Interface Courant Number mean: 1.11123e-12 max: 4.97824e-10
deltaT = 1e-10
Time = 5e-10

PIMPLE: iteration 1
Selected 0 cells for refinement out of 963200.
Selected 34000 split points out of a possible 119200.
Unrefined from 963200 to 725200 cells.
Execution time for mesh.update() = 2.6 s
GAMGPCG:  Solving for pcorr, Initial residual = 0.999999, Final residual = 1.3895e-07, No Iterations 1
GAMGPCG:  Solving for pcorr, Initial residual = 0.0134896, Final residual = 9.11342e-07, No Iterations 4
Corrected phi for Dilation
time step continuity errors : sum local = 1.33074e-25, global = 1.56899e-26, cumulative = 8.57384e-26
Liquid-Vapour State Transition: (Liquid,Vapour): (metal1,metal1vapour)  Boiling Temperature: pair_boil_T [0 0 0 1 0 0 0] 3134K
Liquid-Vapour State Transition: (Liquid,Vapour): (metal2,metal2vapour)  Boiling Temperature: pair_boil_T [0 0 0 1 0 0 0] 2944K
Liquid-Vapour State Transition: (Liquid,Vapour): (metal3,metal3vapour)  Boiling Temperature: pair_boil_T [0 0 0 1 0 0 0] 3186K
Liquid-Vapour State Transition: (Liquid,Vapour): (metal4,metal4vapour)  Boiling Temperature: pair_boil_T [0 0 0 1 0 0 0] 4912K
MULES: Solving for alpha.metal1
metal1 volume fraction, min, max = 0.0733929 -1.09476e-42 0.685
MULES: Solving for alpha.metal1vapour
metal1vapour volume fraction, min, max = 0 0 0
MULES: Solving for alpha.metal2
metal2 volume fraction, min, max = 0.0182143 -2.73691e-43 0.17
MULES: Solving for alpha.metal2vapour
metal2vapour volume fraction, min, max = 0 0 0
MULES: Solving for alpha.metal3
metal3 volume fraction, min, max = 0.0128571 -1.36847e-43 0.12
MULES: Solving for alpha.metal3vapour
metal3vapour volume fraction, min, max = 0 0 0
MULES: Solving for alpha.metal4
metal4 volume fraction, min, max = 0.00267857 -3.42115e-44 0.025
MULES: Solving for alpha.metal4vapour
metal4vapour volume fraction, min, max = 0 0 0
MULES: Solving for alpha.air
air volume fraction, min, max = 0.892857 -1.76869e-84 1
Phase-sum volume fraction, min, max = 1 1 1
Phase pair (liquid + vapor) masses in domain:
    metal1 + metal1vapour: 5.17531e-08 kg (liquid: 5.17531e-08 kg, vapor: 0 kg)
    metal2 + metal2vapour: 1.17341e-08 kg (liquid: 1.17341e-08 kg, vapor: 0 kg)
    metal3 + metal3vapour: 1.02528e-08 kg (liquid: 1.02528e-08 kg, vapor: 0 kg)
    metal4 + metal4vapour: 2.4672e-09 kg (liquid: 2.4672e-09 kg, vapor: 0 kg)
    air: 1.28124e-10 kg
diagonal:  Solving for rho, Initial residual = 0, Final residual = 0, No Iterations 0
Updating deposition
Laser: laser0
    mean position = (0 -2e-05 0)
    power = 200000
    position including any oscillation = (0 -2e-05 0)
    Perturbation vector for ray seed points = (0 3.95285e-14 -3.95285e-14)
nRadial: 50
nAngular: 360
    Total rays: 18000, local particles: 0
    Total Q deposited: 0
smoothSolver:  Solving for Ux, Initial residual = 0.0750384, Final residual = 1.37035e-10, No Iterations 2
smoothSolver:  Solving for Uy, Initial residual = 2.66475e-10, Final residual = 2.66475e-10, No Iterations 0
smoothSolver:  Solving for Uz, Initial residual = 0.00929934, Final residual = 1.69826e-11, No Iterations 2
smoothSolver:  Solving for T, Initial residual = 0.120347, Final residual = 0.125151, No Iterations 1000
Correcting epsilon1, mean residual = 4.94439e-18, max residual = 4.44089e-16
GAMG:  Solving for p_rgh, Initial residual = 2.89555e-06, Final residual = 1.48068e-14, No Iterations 1
GAMG:  Solving for p_rgh, Initial residual = 2.51785e-11, Final residual = 2.51785e-11, No Iterations 0
max(U) 4.30264e-06
min(p_rgh) 99996.1
min(T) 300
GAMG:  Solving for p_rgh, Initial residual = 7.15008e-10, Final residual = 7.15008e-10, No Iterations 0
GAMG:  Solving for p_rgh, Initial residual = 7.15008e-10, Final residual = 7.15008e-10, No Iterations 0
max(U) 4.30022e-06
min(p_rgh) 99996.1
min(T) 300
GAMG:  Solving for p_rgh, Initial residual = 7.17819e-10, Final residual = 7.17819e-10, No Iterations 0
GAMGPCG:  Solving for p_rgh, Initial residual = 7.17819e-10, Final residual = 7.17819e-10, No Iterations 0
max(U) 4.30021e-06
min(p_rgh) 99996.1
min(T) 300
ExecutionTime = 114.98 s  ClockTime = 116 s

fieldMinMax fieldMinMax write:
    min(T) = 300 in cell 859 at location (-0.000155 3.5e-05 1.5e-05) on processor 8
    max(T) = 300 in cell 14 at location (9e-05 -0.00047 1e-05) on processor 1
    min(mag(U)) = 0 in cell 630 at location (1e-05 -0.00035 0.0002) on processor 0
    max(mag(U)) = 4.30021e-06 in cell 118580 at location (-6.8125e-05 -1.875e-06 -0.000166875) on processor 10
    min(p) = 100000 in cell 0 at location (1e-05 -0.0005 1e-05) on processor 1
    max(p) = 100001 in cell 61 at location (-0.00017 6e-05 1e-05) on processor 8

Courant Number mean: 2.72129e-12 max: 4.52958e-10
Interface Courant Number mean: 3.46923e-13 max: 1.55425e-10
deltaT = 1e-10
Time = 6e-10

PIMPLE: iteration 1
Selected 0 cells for refinement out of 725200.
Selected 0 split points out of a possible 85200.
Liquid-Vapour State Transition: (Liquid,Vapour): (metal1,metal1vapour)  Boiling Temperature: pair_boil_T [0 0 0 1 0 0 0] 3134K
Liquid-Vapour State Transition: (Liquid,Vapour): (metal2,metal2vapour)  Boiling Temperature: pair_boil_T [0 0 0 1 0 0 0] 2944K
Liquid-Vapour State Transition: (Liquid,Vapour): (metal3,metal3vapour)  Boiling Temperature: pair_boil_T [0 0 0 1 0 0 0] 3186K
Liquid-Vapour State Transition: (Liquid,Vapour): (metal4,metal4vapour)  Boiling Temperature: pair_boil_T [0 0 0 1 0 0 0] 4912K
MULES: Solving for alpha.metal1
metal1 volume fraction, min, max = 0.0733929 -1.06208e-34 0.685
MULES: Solving for alpha.metal1vapour
metal1vapour volume fraction, min, max = 0 0 0
MULES: Solving for alpha.metal2
metal2 volume fraction, min, max = 0.0182143 -3.02862e-35 0.17
MULES: Solving for alpha.metal2vapour
metal2vapour volume fraction, min, max = 0 0 0
MULES: Solving for alpha.metal3
metal3 volume fraction, min, max = 0.0128571 -8.69839e-35 0.12
MULES: Solving for alpha.metal3vapour
metal3vapour volume fraction, min, max = 0 0 0
MULES: Solving for alpha.metal4
metal4 volume fraction, min, max = 0.00267857 -5.11707e-36 0.025
MULES: Solving for alpha.metal4vapour
metal4vapour volume fraction, min, max = 0 0 0
MULES: Solving for alpha.air
air volume fraction, min, max = 0.892857 -3.14182e-84 1
Phase-sum volume fraction, min, max = 1 1 1
Phase pair (liquid + vapor) masses in domain:
    metal1 + metal1vapour: 5.17531e-08 kg (liquid: 5.17531e-08 kg, vapor: 0 kg)
    metal2 + metal2vapour: 1.17341e-08 kg (liquid: 1.17341e-08 kg, vapor: 0 kg)
    metal3 + metal3vapour: 1.02528e-08 kg (liquid: 1.02528e-08 kg, vapor: 0 kg)
    metal4 + metal4vapour: 2.4672e-09 kg (liquid: 2.4672e-09 kg, vapor: 0 kg)
    air: 1.28124e-10 kg
diagonal:  Solving for rho, Initial residual = 0, Final residual = 0, No Iterations 0
Updating deposition
Laser: laser0
    mean position = (0 -2e-05 0)
    power = 200000
    position including any oscillation = (0 -2e-05 0)
    Perturbation vector for ray seed points = (0 3.95285e-14 -3.95285e-14)
nRadial: 50
nAngular: 360
    Total rays: 18000, local particles: 0
    Total Q deposited: 66.7254
smoothSolver:  Solving for Ux, Initial residual = 0.264261, Final residual = 1.84984e-10, No Iterations 2
smoothSolver:  Solving for Uy, Initial residual = 7.47725e-10, Final residual = 7.47725e-10, No Iterations 0
smoothSolver:  Solving for Uz, Initial residual = 0.140809, Final residual = 9.85671e-11, No Iterations 2
smoothSolver:  Solving for T, Initial residual = 1, Final residual = 3.81668e-09, No Iterations 3
Correcting epsilon1, mean residual = 0, max residual = 0
GAMG:  Solving for p_rgh, Initial residual = 0.0194628, Final residual = 6.1736e-11, No Iterations 1
GAMG:  Solving for p_rgh, Initial residual = 1.62026e-09, Final residual = 1.62026e-09, No Iterations 0
max(U) 0.00428835
min(p_rgh) 99996.1
min(T) 300
GAMG:  Solving for p_rgh, Initial residual = 2.05981e-08, Final residual = 2.05981e-08, No Iterations 0
GAMG:  Solving for p_rgh, Initial residual = 2.05981e-08, Final residual = 2.05981e-08, No Iterations 0
max(U) 0.00429239
min(p_rgh) 99996.1
min(T) 300
GAMG:  Solving for p_rgh, Initial residual = 2.06507e-08, Final residual = 2.06507e-08, No Iterations 0
GAMGPCG:  Solving for p_rgh, Initial residual = 2.06507e-08, Final residual = 2.06507e-08, No Iterations 0
max(U) 0.00429244
min(p_rgh) 99996.1
min(T) 300
ExecutionTime = 145.68 s  ClockTime = 147 s

fieldMinMax fieldMinMax write:
    min(T) = 300 in cell 47070 at location (6.0625e-05 -1.875e-06 -0.000120625) on processor 13
    max(T) = 300.611 in cell 95332 at location (6.875e-06 6.25e-07 6.875e-06) on processor 15
    min(mag(U)) = 0 in cell 630 at location (1e-05 -0.00035 0.0002) on processor 0
    max(mag(U)) = 0.00429244 in cell 112287 at location (-6.875e-06 -1.875e-06 6.875e-06) on processor 8
    min(p) = 100000 in cell 0 at location (1e-05 -0.0005 1e-05) on processor 1
    max(p) = 100173 in cell 109960 at location (6.875e-06 -6.25e-07 6.875e-06) on processor 15

Courant Number mean: 5.32507e-11 max: 1.40936e-06
Interface Courant Number mean: 4.39839e-12 max: 1.32399e-07
deltaT = 1e-10
Time = 7e-10

PIMPLE: iteration 1
Selected 0 cells for refinement out of 725200.
Selected 0 split points out of a possible 85200.
Liquid-Vapour State Transition: (Liquid,Vapour): (metal1,metal1vapour)  Boiling Temperature: pair_boil_T [0 0 0 1 0 0 0] 3134K
Liquid-Vapour State Transition: (Liquid,Vapour): (metal2,metal2vapour)  Boiling Temperature: pair_boil_T [0 0 0 1 0 0 0] 2944K
Liquid-Vapour State Transition: (Liquid,Vapour): (metal3,metal3vapour)  Boiling Temperature: pair_boil_T [0 0 0 1 0 0 0] 3186K
Liquid-Vapour State Transition: (Liquid,Vapour): (metal4,metal4vapour)  Boiling Temperature: pair_boil_T [0 0 0 1 0 0 0] 4912K
MULES: Solving for alpha.metal1
metal1 volume fraction, min, max = 0.0733929 -1.23626e-30 0.685
MULES: Solving for alpha.metal1vapour
metal1vapour volume fraction, min, max = 0 0 0
MULES: Solving for alpha.metal2
metal2 volume fraction, min, max = 0.0182143 -1.69255e-31 0.17
MULES: Solving for alpha.metal2vapour
metal2vapour volume fraction, min, max = 0 0 0
MULES: Solving for alpha.metal3
metal3 volume fraction, min, max = 0.0128571 -1.71324e-31 0.12
MULES: Solving for alpha.metal3vapour
metal3vapour volume fraction, min, max = 0 0 0
MULES: Solving for alpha.metal4
metal4 volume fraction, min, max = 0.00267857 -3.44008e-32 0.025
MULES: Solving for alpha.metal4vapour
metal4vapour volume fraction, min, max = 0 0 0
MULES: Solving for alpha.air
air volume fraction, min, max = 0.892857 -4.90909e-101 1
Phase-sum volume fraction, min, max = 1 1 1
Phase pair (liquid + vapor) masses in domain:
    metal1 + metal1vapour: 5.17531e-08 kg (liquid: 5.17531e-08 kg, vapor: 0 kg)
    metal2 + metal2vapour: 1.17341e-08 kg (liquid: 1.17341e-08 kg, vapor: 0 kg)
    metal3 + metal3vapour: 1.02528e-08 kg (liquid: 1.02528e-08 kg, vapor: 0 kg)
    metal4 + metal4vapour: 2.4672e-09 kg (liquid: 2.4672e-09 kg, vapor: 0 kg)
    air: 1.28124e-10 kg
diagonal:  Solving for rho, Initial residual = 0, Final residual = 0, No Iterations 0
Updating deposition
Laser: laser0
    mean position = (0 -2e-05 0)
    power = 200000
    position including any oscillation = (0 -2e-05 0)
    Perturbation vector for ray seed points = (0 3.95285e-14 -3.95285e-14)
nRadial: 50
nAngular: 360
    Total rays: 18000, local particles: 0
    Total Q deposited: 14734
smoothSolver:  Solving for Ux, Initial residual = 0.282546, Final residual = 1.06748e-11, No Iterations 3
smoothSolver:  Solving for Uy, Initial residual = 1.3849e-09, Final residual = 1.3849e-09, No Iterations 0
smoothSolver:  Solving for Uz, Initial residual = 0.282535, Final residual = 1.09691e-11, No Iterations 3
smoothSolver:  Solving for T, Initial residual = 0.890932, Final residual = 3.84944e-09, No Iterations 3
Correcting epsilon1, mean residual = 0, max residual = 0
GAMG:  Solving for p_rgh, Initial residual = 0.732727, Final residual = 3.11502e-09, No Iterations 1
GAMG:  Solving for p_rgh, Initial residual = 1.30003e-09, Final residual = 1.30003e-09, No Iterations 0
max(U) 1.91341
min(p_rgh) 99996.1
min(T) 300
GAMG:  Solving for p_rgh, Initial residual = 1.53325e-06, Final residual = 2.60803e-14, No Iterations 1
GAMG:  Solving for p_rgh, Initial residual = 2.50391e-13, Final residual = 2.50391e-13, No Iterations 0
max(U) 1.91162
min(p_rgh) 99996.1
min(T) 300
GAMG:  Solving for p_rgh, Initial residual = 1.19282e-09, Final residual = 1.19282e-09, No Iterations 0
GAMGPCG:  Solving for p_rgh, Initial residual = 1.19282e-09, Final residual = 1.19282e-09, No Iterations 0
max(U) 1.91164
min(p_rgh) 99996.1
min(T) 300
ExecutionTime = 175.82 s  ClockTime = 177 s

fieldMinMax fieldMinMax write:
    min(T) = 300 in cell 47070 at location (6.0625e-05 -1.875e-06 -0.000120625) on processor 13
    max(T) = 571.571 in cell 95332 at location (6.875e-06 6.25e-07 6.875e-06) on processor 15
    min(mag(U)) = 0 in cell 630 at location (1e-05 -0.00035 0.0002) on processor 0
    max(mag(U)) = 1.91164 in cell 112287 at location (-6.875e-06 -1.875e-06 6.875e-06) on processor 8
    min(p) = 100000 in cell 0 at location (1e-05 -0.0005 1e-05) on processor 1
    max(p) = 176791 in cell 112293 at location (-6.875e-06 -6.25e-07 6.875e-06) on processor 8

Courant Number mean: 1.30999e-08 max: 0.000699997
Interface Courant Number mean: 9.69977e-10 max: 5.87666e-05
deltaT = 1e-10
Time = 8e-10

PIMPLE: iteration 1
Selected 0 cells for refinement out of 725200.
Selected 0 split points out of a possible 85200.
Liquid-Vapour State Transition: (Liquid,Vapour): (metal1,metal1vapour)  Boiling Temperature: pair_boil_T [0 0 0 1 0 0 0] 3134K
Liquid-Vapour State Transition: (Liquid,Vapour): (metal2,metal2vapour)  Boiling Temperature: pair_boil_T [0 0 0 1 0 0 0] 2944K
Liquid-Vapour State Transition: (Liquid,Vapour): (metal3,metal3vapour)  Boiling Temperature: pair_boil_T [0 0 0 1 0 0 0] 3186K
Liquid-Vapour State Transition: (Liquid,Vapour): (metal4,metal4vapour)  Boiling Temperature: pair_boil_T [0 0 0 1 0 0 0] 4912K
MULES: Solving for alpha.metal1
metal1 volume fraction, min, max = 0.0733929 -1.81899e-24 0.685
MULES: Solving for alpha.metal1vapour
metal1vapour volume fraction, min, max = 0 0 0
MULES: Solving for alpha.metal2
metal2 volume fraction, min, max = 0.0182143 -1.18234e-24 0.17
MULES: Solving for alpha.metal2vapour
metal2vapour volume fraction, min, max = 0 0 0
MULES: Solving for alpha.metal3
metal3 volume fraction, min, max = 0.0128571 -7.45786e-25 0.12
MULES: Solving for alpha.metal3vapour
metal3vapour volume fraction, min, max = 0 0 0
MULES: Solving for alpha.metal4
metal4 volume fraction, min, max = 0.00267857 -1.45519e-25 0.025
MULES: Solving for alpha.metal4vapour
metal4vapour volume fraction, min, max = 0 0 0
MULES: Solving for alpha.air
air volume fraction, min, max = 0.892857 -4.52519e-120 1
Phase-sum volume fraction, min, max = 1 1 1
Phase pair (liquid + vapor) masses in domain:
    metal1 + metal1vapour: 5.17531e-08 kg (liquid: 5.17531e-08 kg, vapor: 0 kg)
    metal2 + metal2vapour: 1.17341e-08 kg (liquid: 1.17341e-08 kg, vapor: 0 kg)
    metal3 + metal3vapour: 1.02528e-08 kg (liquid: 1.02528e-08 kg, vapor: 0 kg)
    metal4 + metal4vapour: 2.4672e-09 kg (liquid: 2.4672e-09 kg, vapor: 0 kg)
    air: 1.28124e-10 kg
diagonal:  Solving for rho, Initial residual = 0, Final residual = 0, No Iterations 0
Updating deposition
Laser: laser0
    mean position = (0 -2e-05 0)
    power = 200000
    position including any oscillation = (0 -2e-05 0)
    Perturbation vector for ray seed points = (0 3.95285e-14 -3.95285e-14)
nRadial: 50
nAngular: 360
    Total rays: 18000, local particles: 0
    Total Q deposited: 139135
smoothSolver:  Solving for Ux, Initial residual = 0.281843, Final residual = 1.40441e-11, No Iterations 3
smoothSolver:  Solving for Uy, Initial residual = 1.29858e-09, Final residual = 1.29858e-09, No Iterations 0
smoothSolver:  Solving for Uz, Initial residual = 0.248927, Final residual = 1.29814e-11, No Iterations 3
smoothSolver:  Solving for T, Initial residual = 0.257904, Final residual = 1.0228e-09, No Iterations 3
Correcting epsilon1, mean residual = 6.49126e-07, max residual = 0.9911
smoothSolver:  Solving for T, Initial residual = 0.000319702, Final residual = 5.72614e-10, No Iterations 2
Correcting epsilon1, mean residual = 1.75142e-08, max residual = 0.0166929
smoothSolver:  Solving for T, Initial residual = 8.69909e-06, Final residual = 9.15752e-09, No Iterations 1
Correcting epsilon1, mean residual = 5.13781e-10, max residual = 0.000529128
smoothSolver:  Solving for T, Initial residual = 2.64389e-07, Final residual = 2.86214e-10, No Iterations 1
Correcting epsilon1, mean residual = 7.5181e-12, max residual = 1.56102e-05
smoothSolver:  Solving for T, Initial residual = 3.84421e-09, Final residual = 3.84421e-09, No Iterations 0
Correcting epsilon1, mean residual = 7.23403e-12, max residual = 1.50204e-05
smoothSolver:  Solving for T, Initial residual = 7.43698e-09, Final residual = 7.43698e-09, No Iterations 0
Correcting epsilon1, mean residual = 6.9607e-12, max residual = 1.44529e-05
smoothSolver:  Solving for T, Initial residual = 1.08948e-08, Final residual = 1.53255e-11, No Iterations 1
Correcting epsilon1, mean residual = 1.3678e-11, max residual = 2.80914e-05
smoothSolver:  Solving for T, Initial residual = 6.7807e-09, Final residual = 6.7807e-09, No Iterations 0
Correcting epsilon1, mean residual = 1.31612e-11, max residual = 2.703e-05
smoothSolver:  Solving for T, Initial residual = 1.33188e-08, Final residual = 1.86233e-11, No Iterations 1
Correcting epsilon1, mean residual = 1.23039e-11, max residual = 2.53304e-05
smoothSolver:  Solving for T, Initial residual = 6.09504e-09, Final residual = 6.09504e-09, No Iterations 0
Correcting epsilon1, mean residual = 1.18391e-11, max residual = 2.43733e-05
smoothSolver:  Solving for T, Initial residual = 1.19763e-08, Final residual = 1.67144e-11, No Iterations 1
Correcting epsilon1, mean residual = 1.10593e-11, max residual = 2.28405e-05
smoothSolver:  Solving for T, Initial residual = 5.47851e-09, Final residual = 5.47851e-09, No Iterations 0
Correcting epsilon1, mean residual = 1.06414e-11, max residual = 2.19775e-05
smoothSolver:  Solving for T, Initial residual = 1.07648e-08, Final residual = 1.49898e-11, No Iterations 1
Correcting epsilon1, mean residual = 9.94074e-12, max residual = 2.05954e-05
smoothSolver:  Solving for T, Initial residual = 4.92443e-09, Final residual = 4.92443e-09, No Iterations 0
Correcting epsilon1, mean residual = 9.56514e-12, max residual = 1.98172e-05
smoothSolver:  Solving for T, Initial residual = 9.67609e-09, Final residual = 9.67609e-09, No Iterations 0
Correcting epsilon1, mean residual = 9.20373e-12, max residual = 1.90684e-05
smoothSolver:  Solving for T, Initial residual = 1.42482e-08, Final residual = 1.98043e-11, No Iterations 1
Correcting epsilon1, mean residual = 1.78549e-11, max residual = 3.70517e-05
smoothSolver:  Solving for T, Initial residual = 8.85148e-09, Final residual = 8.85148e-09, No Iterations 0
Correcting epsilon1, mean residual = 1.71802e-11, max residual = 3.56517e-05
smoothSolver:  Solving for T, Initial residual = 1.73861e-08, Final residual = 2.41398e-11, No Iterations 1
Correcting epsilon1, mean residual = 1.60623e-11, max residual = 3.341e-05
smoothSolver:  Solving for T, Initial residual = 7.95699e-09, Final residual = 7.95699e-09, No Iterations 0
Correcting epsilon1, mean residual = 1.54554e-11, max residual = 3.21476e-05
smoothSolver:  Solving for T, Initial residual = 1.56347e-08, Final residual = 2.16673e-11, No Iterations 1
Correcting epsilon1, mean residual = 1.44384e-11, max residual = 3.01259e-05
smoothSolver:  Solving for T, Initial residual = 7.15261e-09, Final residual = 7.15261e-09, No Iterations 0
Correcting epsilon1, mean residual = 1.38929e-11, max residual = 2.89876e-05
GAMG:  Solving for p_rgh, Initial residual = 0.0571199, Final residual = 2.95107e-10, No Iterations 1
GAMG:  Solving for p_rgh, Initial residual = 1.19534e-09, Final residual = 1.19534e-09, No Iterations 0
max(U) 13.2676
min(p_rgh) 99996.1
min(T) 300
GAMG:  Solving for p_rgh, Initial residual = 4.52627e-06, Final residual = 4.48575e-13, No Iterations 1
GAMG:  Solving for p_rgh, Initial residual = 1.17301e-11, Final residual = 1.17301e-11, No Iterations 0
max(U) 13.2344
min(p_rgh) 99996.1
min(T) 300
GAMG:  Solving for p_rgh, Initial residual = 2.07601e-08, Final residual = 2.07601e-08, No Iterations 0
GAMGPCG:  Solving for p_rgh, Initial residual = 2.07601e-08, Final residual = 2.07601e-08, No Iterations 0
max(U) 13.2344
min(p_rgh) 99996.1
min(T) 300
ExecutionTime = 208.59 s  ClockTime = 210 s

fieldMinMax fieldMinMax write:
    min(T) = 300 in cell 63086 at location (6.0625e-05 -1.875e-06 -4.9375e-05) on processor 13
    max(T) = 1687.29 in cell 116526 at location (-6.875e-06 6.25e-07 6.875e-06) on processor 8
    min(mag(U)) = 0 in cell 630 at location (1e-05 -0.00035 0.0002) on processor 0
    max(mag(U)) = 13.2344 in cell 109976 at location (1.1875e-05 -6.25e-07 3.125e-06) on processor 15
    min(p) = 100000 in cell 0 at location (1e-05 -0.0005 1e-05) on processor 1
    max(p) = 500758 in cell 112293 at location (-6.875e-06 -6.25e-07 6.875e-06) on processor 8

Courant Number mean: 1.34011e-07 max: 0.00341526
Interface Courant Number mean: 9.77388e-09 max: 0.000287504
deltaT = 1e-10
Time = 9e-10

PIMPLE: iteration 1
Selected 0 cells for refinement out of 725200.
Selected 0 split points out of a possible 85200.
Liquid-Vapour State Transition: (Liquid,Vapour): (metal1,metal1vapour)  Boiling Temperature: pair_boil_T [0 0 0 1 0 0 0] 3134K
Liquid-Vapour State Transition: (Liquid,Vapour): (metal2,metal2vapour)  Boiling Temperature: pair_boil_T [0 0 0 1 0 0 0] 2944K
Liquid-Vapour State Transition: (Liquid,Vapour): (metal3,metal3vapour)  Boiling Temperature: pair_boil_T [0 0 0 1 0 0 0] 3186K
Liquid-Vapour State Transition: (Liquid,Vapour): (metal4,metal4vapour)  Boiling Temperature: pair_boil_T [0 0 0 1 0 0 0] 4912K
MULES: Solving for alpha.metal1
metal1 volume fraction, min, max = 0.0733928 -1.81899e-24 0.685
MULES: Solving for alpha.metal1vapour
metal1vapour volume fraction, min, max = 0 0 0
MULES: Solving for alpha.metal2
metal2 volume fraction, min, max = 0.0182143 -1.34605e-24 0.17
MULES: Solving for alpha.metal2vapour
metal2vapour volume fraction, min, max = 0 0 0
MULES: Solving for alpha.metal3
metal3 volume fraction, min, max = 0.0128571 -7.45787e-25 0.12
MULES: Solving for alpha.metal3vapour
metal3vapour volume fraction, min, max = 0 0 0
MULES: Solving for alpha.metal4
metal4 volume fraction, min, max = 0.00267857 -1.81899e-25 0.025
MULES: Solving for alpha.metal4vapour
metal4vapour volume fraction, min, max = 0 0 0
MULES: Solving for alpha.air
air volume fraction, min, max = 0.892857 -4.73043e-142 1
Phase-sum volume fraction, min, max = 1 1 1
Phase pair (liquid + vapor) masses in domain:
    metal1 + metal1vapour: 5.17531e-08 kg (liquid: 5.17531e-08 kg, vapor: 0 kg)
    metal2 + metal2vapour: 1.17341e-08 kg (liquid: 1.17341e-08 kg, vapor: 0 kg)
    metal3 + metal3vapour: 1.02528e-08 kg (liquid: 1.02528e-08 kg, vapor: 0 kg)
    metal4 + metal4vapour: 2.4672e-09 kg (liquid: 2.4672e-09 kg, vapor: 0 kg)
    air: 1.28124e-10 kg
diagonal:  Solving for rho, Initial residual = 0, Final residual = 0, No Iterations 0
Updating deposition
Laser: laser0
    mean position = (0 -2e-05 0)
    power = 200000
    position including any oscillation = (0 -2e-05 0)
    Perturbation vector for ray seed points = (0 3.95285e-14 -3.95285e-14)
nRadial: 50
nAngular: 360
    Total rays: 18000, local particles: 0
    Total Q deposited: 181699
smoothSolver:  Solving for Ux, Initial residual = 0.265514, Final residual = 1.36408e-11, No Iterations 3
smoothSolver:  Solving for Uy, Initial residual = 1.26245e-09, Final residual = 1.26245e-09, No Iterations 0
smoothSolver:  Solving for Uz, Initial residual = 0.00604345, Final residual = 3.56854e-10, No Iterations 2
smoothSolver:  Solving for T, Initial residual = 0.041945, Final residual = 1.51728e-10, No Iterations 3
Correcting epsilon1, mean residual = 1.6842e-05, max residual = 1
smoothSolver:  Solving for T, Initial residual = 0.00374813, Final residual = 7.77385e-09, No Iterations 2
Correcting epsilon1, mean residual = 1.48099e-07, max residual = 0.0256569
smoothSolver:  Solving for T, Initial residual = 3.65339e-05, Final residual = 4.60216e-11, No Iterations 2
Correcting epsilon1, mean residual = 4.11705e-09, max residual = 0.000789209
smoothSolver:  Solving for T, Initial residual = 1.01639e-06, Final residual = 9.10433e-10, No Iterations 1
Correcting epsilon1, mean residual = 1.18595e-10, max residual = 2.49604e-05
smoothSolver:  Solving for T, Initial residual = 3.01877e-08, Final residual = 2.75109e-11, No Iterations 1
Correcting epsilon1, mean residual = 1.37151e-12, max residual = 7.31675e-07
GAMG:  Solving for p_rgh, Initial residual = 0.00398641, Final residual = 5.41192e-11, No Iterations 1
GAMG:  Solving for p_rgh, Initial residual = 1.49929e-09, Final residual = 1.49929e-09, No Iterations 0
max(U) 34.855
min(p_rgh) 99996.1
min(T) 300
GAMG:  Solving for p_rgh, Initial residual = 3.37e-06, Final residual = 5.03417e-13, No Iterations 1
GAMG:  Solving for p_rgh, Initial residual = 2.77158e-11, Final residual = 2.77158e-11, No Iterations 0
max(U) 34.6753
min(p_rgh) 99996.1
min(T) 300
GAMG:  Solving for p_rgh, Initial residual = 2.03444e-08, Final residual = 2.03444e-08, No Iterations 0
GAMGPCG:  Solving for p_rgh, Initial residual = 2.03444e-08, Final residual = 2.03444e-08, No Iterations 0
max(U) 34.6754
min(p_rgh) 99996.1
min(T) 300
ExecutionTime = 239.91 s  ClockTime = 242 s

fieldMinMax fieldMinMax write:
    min(T) = 300 in cell 29309 at location (-3.625e-05 -3.75e-06 6.625e-05) on processor 8
    max(T) = 3438.54 in cell 116526 at location (-6.875e-06 6.25e-07 6.875e-06) on processor 8
    min(mag(U)) = 0 in cell 630 at location (1e-05 -0.00035 0.0002) on processor 0
    max(mag(U)) = 34.6754 in cell 172452 at location (6.875e-06 -1.875e-06 -6.875e-06) on processor 13
    min(p) = 100000 in cell 0 at location (1e-05 -0.0005 1e-05) on processor 1
    max(p) = 1.02509e+06 in cell 172458 at location (6.875e-06 -6.25e-07 -6.875e-06) on processor 13

Courant Number mean: 3.14782e-07 max: 0.00802117
Interface Courant Number mean: 1.83008e-08 max: 0.000616919
deltaT = 1e-10
Time = 1e-09

PIMPLE: iteration 1
Selected 0 cells for refinement out of 725200.
Selected 0 split points out of a possible 85200.
Liquid-Vapour State Transition: (Liquid,Vapour): (metal1,metal1vapour)  Boiling Temperature: pair_boil_T [0 0 0 1 0 0 0] 3134K
Liquid-Vapour State Transition: (Liquid,Vapour): (metal2,metal2vapour)  Boiling Temperature: pair_boil_T [0 0 0 1 0 0 0] 2944K
Liquid-Vapour State Transition: (Liquid,Vapour): (metal3,metal3vapour)  Boiling Temperature: pair_boil_T [0 0 0 1 0 0 0] 3186K
Liquid-Vapour State Transition: (Liquid,Vapour): (metal4,metal4vapour)  Boiling Temperature: pair_boil_T [0 0 0 1 0 0 0] 4912K
MULES: Solving for alpha.metal1
metal1 volume fraction, min, max = 0.0733928 -1.81899e-24 0.685
MULES: Solving for alpha.metal1vapour
metal1vapour volume fraction, min, max = 6.32901e-15 0 7.25861e-08
MULES: Solving for alpha.metal2
metal2 volume fraction, min, max = 0.0182143 -1.34605e-24 0.17
MULES: Solving for alpha.metal2vapour
metal2vapour volume fraction, min, max = 4.21893e-14 0 4.83861e-07
MULES: Solving for alpha.metal3
metal3 volume fraction, min, max = 0.0128571 -7.45794e-25 0.12
MULES: Solving for alpha.metal3vapour
metal3vapour volume fraction, min, max = 0 0 0
MULES: Solving for alpha.metal4
metal4 volume fraction, min, max = 0.00267857 -1.81899e-25 0.025
MULES: Solving for alpha.metal4vapour
metal4vapour volume fraction, min, max = 0 0 0
MULES: Solving for alpha.air
air volume fraction, min, max = 0.892857 -1.47351e-159 1
Phase-sum volume fraction, min, max = 1 1 1
Phase pair (liquid + vapor) masses in domain:
    metal1 + metal1vapour: 5.17531e-08 kg (liquid: 5.17531e-08 kg, vapor: 4.60191e-25 kg)
    metal2 + metal2vapour: 1.17341e-08 kg (liquid: 1.17341e-08 kg, vapor: 2.83793e-24 kg)
    metal3 + metal3vapour: 1.02528e-08 kg (liquid: 1.02528e-08 kg, vapor: 0 kg)
    metal4 + metal4vapour: 2.4672e-09 kg (liquid: 2.4672e-09 kg, vapor: 0 kg)
    air: 1.28124e-10 kg
diagonal:  Solving for rho, Initial residual = 0, Final residual = 0, No Iterations 0
Updating deposition
Laser: laser0
    mean position = (0 -2e-05 0)
    power = 200000
    position including any oscillation = (0 -2e-05 0)
    Perturbation vector for ray seed points = (0 3.95285e-14 -3.95285e-14)
nRadial: 50
nAngular: 360
    Total rays: 18000, local particles: 0
    Total Q deposited: 189053
smoothSolver:  Solving for Ux, Initial residual = 0.241259, Final residual = 9.84597e-12, No Iterations 3
smoothSolver:  Solving for Uy, Initial residual = 1.10003e-09, Final residual = 1.10003e-09, No Iterations 0
smoothSolver:  Solving for Uz, Initial residual = 0.00187828, Final residual = 8.09732e-11, No Iterations 2
smoothSolver:  Solving for T, Initial residual = 0.0221343, Final residual = 7.83707e-11, No Iterations 3
Correcting epsilon1, mean residual = 1.31498e-05, max residual = 1
smoothSolver:  Solving for T, Initial residual = 0.00197499, Final residual = 3.28634e-09, No Iterations 2
Correcting epsilon1, mean residual = 8.7488e-08, max residual = 0.027126
smoothSolver:  Solving for T, Initial residual = 1.38565e-05, Final residual = 2.86641e-11, No Iterations 2
Correcting epsilon1, mean residual = 2.51136e-09, max residual = 0.000833309
smoothSolver:  Solving for T, Initial residual = 3.97821e-07, Final residual = 4.32499e-10, No Iterations 1
Correcting epsilon1, mean residual = 7.48424e-11, max residual = 2.63171e-05
smoothSolver:  Solving for T, Initial residual = 1.22874e-08, Final residual = 1.36839e-11, No Iterations 1
Correcting epsilon1, mean residual = 1.20219e-12, max residual = 1.49136e-06
smoothSolver:  Solving for T, Initial residual = 1.87436e-10, Final residual = 1.87436e-10, No Iterations 0
Correcting epsilon1, mean residual = 1.15677e-12, max residual = 1.43502e-06
smoothSolver:  Solving for T, Initial residual = 3.70412e-10, Final residual = 3.70412e-10, No Iterations 0
Correcting epsilon1, mean residual = 1.11307e-12, max residual = 1.38081e-06
smoothSolver:  Solving for T, Initial residual = 5.4667e-10, Final residual = 5.4667e-10, No Iterations 0
Correcting epsilon1, mean residual = 1.07102e-12, max residual = 1.32864e-06
smoothSolver:  Solving for T, Initial residual = 7.16314e-10, Final residual = 7.16314e-10, No Iterations 0
Correcting epsilon1, mean residual = 1.03056e-12, max residual = 1.27844e-06
smoothSolver:  Solving for T, Initial residual = 8.79552e-10, Final residual = 8.79552e-10, No Iterations 0
Correcting epsilon1, mean residual = 9.91621e-13, max residual = 1.23015e-06
smoothSolver:  Solving for T, Initial residual = 1.03662e-09, Final residual = 1.03662e-09, No Iterations 0
Correcting epsilon1, mean residual = 9.54158e-13, max residual = 1.18367e-06
smoothSolver:  Solving for T, Initial residual = 1.18776e-09, Final residual = 1.18776e-09, No Iterations 0
Correcting epsilon1, mean residual = 9.18109e-13, max residual = 1.13895e-06
smoothSolver:  Solving for T, Initial residual = 1.33319e-09, Final residual = 1.33319e-09, No Iterations 0
Correcting epsilon1, mean residual = 8.83423e-13, max residual = 1.09592e-06
smoothSolver:  Solving for T, Initial residual = 1.47312e-09, Final residual = 1.47312e-09, No Iterations 0
Correcting epsilon1, mean residual = 8.50047e-13, max residual = 1.05452e-06
smoothSolver:  Solving for T, Initial residual = 1.60777e-09, Final residual = 1.60777e-09, No Iterations 0
Correcting epsilon1, mean residual = 8.17932e-13, max residual = 1.01468e-06
smoothSolver:  Solving for T, Initial residual = 1.73733e-09, Final residual = 1.73733e-09, No Iterations 0
Correcting epsilon1, mean residual = 7.8703e-13, max residual = 9.76346e-07
GAMG:  Solving for p_rgh, Initial residual = 0.00146043, Final residual = 4.9626e-11, No Iterations 1
GAMG:  Solving for p_rgh, Initial residual = 2.01752e-09, Final residual = 2.01752e-09, No Iterations 0
max(U) 70.0857
min(p_rgh) 99996.1
min(T) 300
GAMG:  Solving for p_rgh, Initial residual = 2.93417e-06, Final residual = 9.05796e-13, No Iterations 1
GAMG:  Solving for p_rgh, Initial residual = 3.40288e-11, Final residual = 3.40288e-11, No Iterations 0
max(U) 69.8078
min(p_rgh) 99996.1
min(T) 300
GAMG:  Solving for p_rgh, Initial residual = 2.92842e-08, Final residual = 2.92842e-08, No Iterations 0
GAMGPCG:  Solving for p_rgh, Initial residual = 2.92842e-08, Final residual = 2.92842e-08, No Iterations 0
max(U) 69.8087
min(p_rgh) 99996.1
min(T) 300
ExecutionTime = 271.89 s  ClockTime = 274 s

fieldMinMax fieldMinMax write:
    min(T) = 300 in cell 29309 at location (-3.625e-05 -3.75e-06 6.625e-05) on processor 8
    max(T) = 5173.76 in cell 116526 at location (-6.875e-06 6.25e-07 6.875e-06) on processor 8
    min(mag(U)) = 0 in cell 630 at location (1e-05 -0.00035 0.0002) on processor 0
    max(mag(U)) = 69.8087 in cell 172452 at location (6.875e-06 -1.875e-06 -6.875e-06) on processor 13
    min(p) = 100000 in cell 0 at location (1e-05 -0.0005 1e-05) on processor 1
    max(p) = 1.54196e+06 in cell 172458 at location (6.875e-06 -6.25e-07 -6.875e-06) on processor 13

Courant Number mean: 5.66505e-07 max: 0.0135314
Interface Courant Number mean: 2.55973e-08 max: 0.000872686
deltaT = 1e-10
Time = 1.1e-09

PIMPLE: iteration 1
Selected 0 cells for refinement out of 725200.
Selected 0 split points out of a possible 85200.
Liquid-Vapour State Transition: (Liquid,Vapour): (metal1,metal1vapour)  Boiling Temperature: pair_boil_T [0 0 0 1 0 0 0] 3134K
Liquid-Vapour State Transition: (Liquid,Vapour): (metal2,metal2vapour)  Boiling Temperature: pair_boil_T [0 0 0 1 0 0 0] 2944K
Liquid-Vapour State Transition: (Liquid,Vapour): (metal3,metal3vapour)  Boiling Temperature: pair_boil_T [0 0 0 1 0 0 0] 3186K
Liquid-Vapour State Transition: (Liquid,Vapour): (metal4,metal4vapour)  Boiling Temperature: pair_boil_T [0 0 0 1 0 0 0] 4912K
MULES: Solving for alpha.metal1
metal1 volume fraction, min, max = 0.0733928 -1.819e-24 0.685
MULES: Solving for alpha.metal1vapour
metal1vapour volume fraction, min, max = 1.88198e-11 -4.06001e-33 6.60739e-05
MULES: Solving for alpha.metal2
metal2 volume fraction, min, max = 0.0182143 -1.41884e-24 0.17
MULES: Solving for alpha.metal2vapour
metal2vapour volume fraction, min, max = 1.16491e-11 -9.03254e-33 3.28194e-05
MULES: Solving for alpha.metal3
metal3 volume fraction, min, max = 0.0128571 -7.45808e-25 0.12
MULES: Solving for alpha.metal3vapour
metal3vapour volume fraction, min, max = 2.41639e-12 -9.28315e-34 9.31848e-06
MULES: Solving for alpha.metal4
metal4 volume fraction, min, max = 0.00267857 -2.00092e-25 0.025
MULES: Solving for alpha.metal4vapour
metal4vapour volume fraction, min, max = 0 0 0
MULES: Solving for alpha.air
air volume fraction, min, max = 0.892857 0 1
Phase-sum volume fraction, min, max = 1 1 1
Phase pair (liquid + vapor) masses in domain:
    metal1 + metal1vapour: 5.17531e-08 kg (liquid: 5.17531e-08 kg, vapor: 1.43991e-21 kg)
    metal2 + metal2vapour: 1.17341e-08 kg (liquid: 1.17341e-08 kg, vapor: 8.31046e-22 kg)
    metal3 + metal3vapour: 1.02529e-08 kg (liquid: 1.02529e-08 kg, vapor: 1.95641e-22 kg)
    metal4 + metal4vapour: 2.4672e-09 kg (liquid: 2.4672e-09 kg, vapor: 0 kg)
    air: 1.28124e-10 kg
diagonal:  Solving for rho, Initial residual = 0, Final residual = 0, No Iterations 0
Updating deposition
Laser: laser0
    mean position = (0 -2e-05 0)
    power = 200000
    position including any oscillation = (0 -2e-05 0)
    Perturbation vector for ray seed points = (0 3.95285e-14 -3.95285e-14)
nRadial: 50
nAngular: 360
    Total rays: 18000, local particles: 0
    Total Q deposited: 191351
smoothSolver:  Solving for Ux, Initial residual = 0.215588, Final residual = 9.66111e-09, No Iterations 2
smoothSolver:  Solving for Uy, Initial residual = 9.08683e-10, Final residual = 9.08683e-10, No Iterations 0
smoothSolver:  Solving for Uz, Initial residual = 0.000216225, Final residual = 9.50495e-12, No Iterations 2
smoothSolver:  Solving for T, Initial residual = 0.01449, Final residual = 5.08432e-11, No Iterations 3
Correcting epsilon1, mean residual = 1.63786e-05, max residual = 0.787738
smoothSolver:  Solving for T, Initial residual = 0.00182527, Final residual = 2.36964e-09, No Iterations 2
Correcting epsilon1, mean residual = 3.08079e-07, max residual = 0.0238549
smoothSolver:  Solving for T, Initial residual = 3.60521e-05, Final residual = 4.43862e-11, No Iterations 2
Correcting epsilon1, mean residual = 8.20065e-09, max residual = 0.000731765
smoothSolver:  Solving for T, Initial residual = 9.6054e-07, Final residual = 8.61694e-10, No Iterations 1
Correcting epsilon1, mean residual = 2.27724e-10, max residual = 2.30805e-05
smoothSolver:  Solving for T, Initial residual = 2.75343e-08, Final residual = 2.53852e-11, No Iterations 1
Correcting epsilon1, mean residual = 2.9478e-12, max residual = 1.37366e-06
smoothSolver:  Solving for T, Initial residual = 3.35461e-10, Final residual = 3.35461e-10, No Iterations 0
Correcting epsilon1, mean residual = 2.83644e-12, max residual = 1.32176e-06
smoothSolver:  Solving for T, Initial residual = 6.66646e-10, Final residual = 6.66646e-10, No Iterations 0
Correcting epsilon1, mean residual = 2.72928e-12, max residual = 1.27183e-06
smoothSolver:  Solving for T, Initial residual = 9.8606e-10, Final residual = 9.8606e-10, No Iterations 0
Correcting epsilon1, mean residual = 2.62617e-12, max residual = 1.22378e-06
smoothSolver:  Solving for T, Initial residual = 1.2936e-09, Final residual = 1.2936e-09, No Iterations 0
Correcting epsilon1, mean residual = 2.52696e-12, max residual = 1.17755e-06
smoothSolver:  Solving for T, Initial residual = 1.58956e-09, Final residual = 1.58956e-09, No Iterations 0
Correcting epsilon1, mean residual = 2.43149e-12, max residual = 1.13307e-06
smoothSolver:  Solving for T, Initial residual = 1.87435e-09, Final residual = 1.87435e-09, No Iterations 0
Correcting epsilon1, mean residual = 2.33964e-12, max residual = 1.09026e-06
smoothSolver:  Solving for T, Initial residual = 2.14838e-09, Final residual = 2.14838e-09, No Iterations 0
Correcting epsilon1, mean residual = 2.25125e-12, max residual = 1.04907e-06
smoothSolver:  Solving for T, Initial residual = 2.41206e-09, Final residual = 2.41206e-09, No Iterations 0
Correcting epsilon1, mean residual = 2.1662e-12, max residual = 1.00944e-06
smoothSolver:  Solving for T, Initial residual = 2.66578e-09, Final residual = 2.66578e-09, No Iterations 0
Correcting epsilon1, mean residual = 2.08436e-12, max residual = 9.71306e-07
GAMG:  Solving for p_rgh, Initial residual = 0.000718359, Final residual = 4.88494e-11, No Iterations 1
GAMG:  Solving for p_rgh, Initial residual = 2.9483e-09, Final residual = 2.9483e-09, No Iterations 0
max(U) 115.68
min(p_rgh) 99996.1
min(T) 300
GAMG:  Solving for p_rgh, Initial residual = 2.46669e-06, Final residual = 1.30004e-12, No Iterations 1
GAMG:  Solving for p_rgh, Initial residual = 3.99803e-11, Final residual = 3.99803e-11, No Iterations 0
max(U) 115.362
min(p_rgh) 99996.1
min(T) 300
GAMG:  Solving for p_rgh, Initial residual = 3.73094e-08, Final residual = 3.73094e-08, No Iterations 0
GAMGPCG:  Solving for p_rgh, Initial residual = 3.73094e-08, Final residual = 3.73094e-08, No Iterations 0
max(U) 115.364
min(p_rgh) 99996.1
min(T) 300
ExecutionTime = 310.27 s  ClockTime = 312 s

fieldMinMax fieldMinMax write:
    min(T) = 300 in cell 29309 at location (-3.625e-05 -3.75e-06 6.625e-05) on processor 8
    max(T) = 6890.95 in cell 116526 at location (-6.875e-06 6.25e-07 6.875e-06) on processor 8
    min(mag(U)) = 0 in cell 630 at location (1e-05 -0.00035 0.0002) on processor 0
    max(mag(U)) = 115.364 in cell 172452 at location (6.875e-06 -1.875e-06 -6.875e-06) on processor 13
    min(p) = 100000 in cell 0 at location (1e-05 -0.0005 1e-05) on processor 1
    max(p) = 2.00743e+06 in cell 172458 at location (6.875e-06 -6.25e-07 -6.875e-06) on processor 13

Courant Number mean: 8.77408e-07 max: 0.0194762
Interface Courant Number mean: 3.02386e-08 max: 0.00102336
deltaT = 1e-10
Time = 1.2e-09

PIMPLE: iteration 1
Selected 0 cells for refinement out of 725200.
Selected 0 split points out of a possible 85200.
Liquid-Vapour State Transition: (Liquid,Vapour): (metal1,metal1vapour)  Boiling Temperature: pair_boil_T [0 0 0 1 0 0 0] 3134K
Liquid-Vapour State Transition: (Liquid,Vapour): (metal2,metal2vapour)  Boiling Temperature: pair_boil_T [0 0 0 1 0 0 0] 2944K
Liquid-Vapour State Transition: (Liquid,Vapour): (metal3,metal3vapour)  Boiling Temperature: pair_boil_T [0 0 0 1 0 0 0] 3186K
Liquid-Vapour State Transition: (Liquid,Vapour): (metal4,metal4vapour)  Boiling Temperature: pair_boil_T [0 0 0 1 0 0 0] 4912K
MULES: Solving for alpha.metal1
metal1 volume fraction, min, max = 0.0733927 -1.89187e-24 0.685
MULES: Solving for alpha.metal1vapour
metal1vapour volume fraction, min, max = 3.46288e-10 -5.15216e-31 0.000484611
MULES: Solving for alpha.metal2
metal2 volume fraction, min, max = 0.0182143 -1.41883e-24 0.17
MULES: Solving for alpha.metal2vapour
metal2vapour volume fraction, min, max = 1.76819e-10 -2.58185e-31 0.000220952
MULES: Solving for alpha.metal3
metal3 volume fraction, min, max = 0.0128571 -7.45827e-25 0.12
MULES: Solving for alpha.metal3vapour
metal3vapour volume fraction, min, max = 4.81647e-11 -6.79636e-32 7.25105e-05
MULES: Solving for alpha.metal4
metal4 volume fraction, min, max = 0.00267857 -2.00092e-25 0.025
MULES: Solving for alpha.metal4vapour
metal4vapour volume fraction, min, max = 7.48153e-14 -1.31188e-33 6.24399e-07
MULES: Solving for alpha.air
air volume fraction, min, max = 0.892857 -1.42437e-66 1
Phase-sum volume fraction, min, max = 1 1 1
Phase pair (liquid + vapor) masses in domain:
    metal1 + metal1vapour: 5.1753e-08 kg (liquid: 5.1753e-08 kg, vapor: 2.78445e-20 kg)
    metal2 + metal2vapour: 1.17341e-08 kg (liquid: 1.17341e-08 kg, vapor: 1.31898e-20 kg)
    metal3 + metal3vapour: 1.02529e-08 kg (liquid: 1.02529e-08 kg, vapor: 4.10302e-21 kg)
    metal4 + metal4vapour: 2.4672e-09 kg (liquid: 2.4672e-09 kg, vapor: 1.01626e-23 kg)
    air: 1.28124e-10 kg
diagonal:  Solving for rho, Initial residual = 0, Final residual = 0, No Iterations 0
Updating deposition
Laser: laser0
    mean position = (0 -2e-05 0)
    power = 200000
    position including any oscillation = (0 -2e-05 0)
    Perturbation vector for ray seed points = (0 3.95285e-14 -3.95285e-14)
nRadial: 50
nAngular: 360
    Total rays: 18000, local particles: 0
    Total Q deposited: 192240
smoothSolver:  Solving for Ux, Initial residual = 0.193738, Final residual = 9.36283e-09, No Iterations 2
[...]
MULES: Solving for alpha.air
air volume fraction, min, max = 0.892857 -1.34913e-74 1.33836
Phase-sum volume fraction, min, max = 0.999996 0.000268071 1.33836
Phase pair (liquid + vapor) masses in domain:
    metal1 + metal1vapour: 5.17327e-08 kg (liquid: 5.17327e-08 kg, vapor: 6.35376e-15 kg)
    metal2 + metal2vapour: 1.17295e-08 kg (liquid: 1.17294e-08 kg, vapor: 2.43945e-15 kg)
    metal3 + metal3vapour: 1.02525e-08 kg (liquid: 1.02525e-08 kg, vapor: 7.85854e-16 kg)
    metal4 + metal4vapour: 2.46623e-09 kg (liquid: 2.46623e-09 kg, vapor: 1.01156e-16 kg)
    air: 1.28127e-10 kg
diagonal:  Solving for rho, Initial residual = 0, Final residual = 0, No Iterations 0
Updating deposition
Laser: laser0
    mean position = (0 -2e-05 0)
    power = 0
    position including any oscillation = (0 -2e-05 0)
    Perturbation vector for ray seed points = (0 3.95285e-14 -3.95285e-14)
nRadial: 50
nAngular: 360
    Total rays: 18000, local particles: 0
    Total Q deposited: 0
smoothSolver:  Solving for Ux, Initial residual = 1.46367e-05, Final residual = 1.0665e-09, No Iterations 1
smoothSolver:  Solving for Uy, Initial residual = 6.38344e-10, Final residual = 6.38344e-10, No Iterations 0
smoothSolver:  Solving for Uz, Initial residual = 1.45863e-07, Final residual = 1.27252e-11, No Iterations 1
smoothSolver:  Solving for T, Initial residual = 0.000184434, Final residual = 4.2742e-09, No Iterations 7
Correcting epsilon1, mean residual = 7.65329e-07, max residual = 0.108534
smoothSolver:  Solving for T, Initial residual = 9.27772e-06, Final residual = 7.89901e-09, No Iterations 1
Correcting epsilon1, mean residual = 2.627e-08, max residual = 0.00445802
smoothSolver:  Solving for T, Initial residual = 3.26216e-07, Final residual = 9.31769e-10, No Iterations 1
Correcting epsilon1, mean residual = 8.42488e-10, max residual = 0.000306359
smoothSolver:  Solving for T, Initial residual = 1.09427e-08, Final residual = 2.26028e-10, No Iterations 1
Correcting epsilon1, mean residual = 3.72558e-11, max residual = 3.20332e-05
smoothSolver:  Solving for T, Initial residual = 6.77541e-10, Final residual = 6.77541e-10, No Iterations 0
Correcting epsilon1, mean residual = 3.58481e-11, max residual = 3.08228e-05
smoothSolver:  Solving for T, Initial residual = 1.11201e-09, Final residual = 1.11201e-09, No Iterations 0
Correcting epsilon1, mean residual = 3.44936e-11, max residual = 2.96582e-05
smoothSolver:  Solving for T, Initial residual = 1.53005e-09, Final residual = 1.53005e-09, No Iterations 0
Correcting epsilon1, mean residual = 3.31903e-11, max residual = 2.85376e-05
smoothSolver:  Solving for T, Initial residual = 1.93231e-09, Final residual = 1.93231e-09, No Iterations 0
Correcting epsilon1, mean residual = 3.19362e-11, max residual = 2.74593e-05
smoothSolver:  Solving for T, Initial residual = 2.31936e-09, Final residual = 2.31936e-09, No Iterations 0
Correcting epsilon1, mean residual = 3.07296e-11, max residual = 2.64218e-05
smoothSolver:  Solving for T, Initial residual = 2.69179e-09, Final residual = 2.69179e-09, No Iterations 0
Correcting epsilon1, mean residual = 2.95685e-11, max residual = 2.54234e-05
smoothSolver:  Solving for T, Initial residual = 3.05014e-09, Final residual = 3.05014e-09, No Iterations 0
Correcting epsilon1, mean residual = 2.84512e-11, max residual = 2.44628e-05
smoothSolver:  Solving for T, Initial residual = 3.39496e-09, Final residual = 3.39496e-09, No Iterations 0
Correcting epsilon1, mean residual = 2.73762e-11, max residual = 2.35385e-05
smoothSolver:  Solving for T, Initial residual = 3.72675e-09, Final residual = 3.72675e-09, No Iterations 0
Correcting epsilon1, mean residual = 2.63418e-11, max residual = 2.26491e-05
smoothSolver:  Solving for T, Initial residual = 4.046e-09, Final residual = 4.046e-09, No Iterations 0
Correcting epsilon1, mean residual = 2.53465e-11, max residual = 2.17933e-05
smoothSolver:  Solving for T, Initial residual = 4.35319e-09, Final residual = 4.35319e-09, No Iterations 0
Correcting epsilon1, mean residual = 2.43888e-11, max residual = 2.09699e-05
smoothSolver:  Solving for T, Initial residual = 4.64877e-09, Final residual = 4.64877e-09, No Iterations 0
Correcting epsilon1, mean residual = 2.34673e-11, max residual = 2.01776e-05
smoothSolver:  Solving for T, Initial residual = 4.93319e-09, Final residual = 4.93319e-09, No Iterations 0
Correcting epsilon1, mean residual = 2.25806e-11, max residual = 1.94152e-05
smoothSolver:  Solving for T, Initial residual = 5.20685e-09, Final residual = 5.20685e-09, No Iterations 0
Correcting epsilon1, mean residual = 2.17274e-11, max residual = 1.86816e-05
smoothSolver:  Solving for T, Initial residual = 5.47018e-09, Final residual = 5.47018e-09, No Iterations 0
Correcting epsilon1, mean residual = 2.09065e-11, max residual = 1.79757e-05
smoothSolver:  Solving for T, Initial residual = 5.72356e-09, Final residual = 5.72356e-09, No Iterations 0
Correcting epsilon1, mean residual = 2.01165e-11, max residual = 1.72965e-05
smoothSolver:  Solving for T, Initial residual = 5.96736e-09, Final residual = 5.96736e-09, No Iterations 0
Correcting epsilon1, mean residual = 1.93565e-11, max residual = 1.6643e-05
GAMG:  Solving for p_rgh, Initial residual = 1.85579e-05, Final residual = 9.85261e-11, No Iterations 1
GAMG:  Solving for p_rgh, Initial residual = 3.93866e-09, Final residual = 3.93866e-09, No Iterations 0
max(U) 1324.79
min(p_rgh) 999.971
min(T) 296.593
GAMG:  Solving for p_rgh, Initial residual = 2.0712e-05, Final residual = 9.45569e-11, No Iterations 1
GAMG:  Solving for p_rgh, Initial residual = 4.31478e-09, Final residual = 4.31478e-09, No Iterations 0
max(U) 7432.16
min(p_rgh) 999.977
min(T) 296.593
GAMG:  Solving for p_rgh, Initial residual = 2.868e-06, Final residual = 3.11764e-11, No Iterations 1
GAMGPCG:  Solving for p_rgh, Initial residual = 5.29615e-10, Final residual = 5.29615e-10, No Iterations 0
max(U) 2540.33
min(p_rgh) 999.975
min(T) 296.593
ExecutionTime = 4622.05 s  ClockTime = 4643 s

fieldMinMax fieldMinMax write:
    min(T) = 296.593 in cell 179264 at location (1.25e-06 -6.25e-06 1.875e-05) on processor 8
    max(T) = 8946.3 in cell 765 at location (6.25e-07 -6.25e-07 6.25e-07) on processor 8
    min(mag(U)) = 0 in cell 630 at location (1e-05 -0.00035 0.0002) on processor 0
    max(mag(U)) = 2540.33 in cell 72924 at location (-1.875e-06 -1.875e-06 1.5625e-05) on processor 8
    min(p) = 1000 in cell 2866 at location (-1.9375e-05 6.25e-07 9.375e-06) on processor 8
    max(p) = 1.43445e+07 in cell 45971 at location (-6.25e-07 1.875e-06 -6.25e-07) on processor 8

Courant Number mean: 1.41131e-05 max: 0.134172
Interface Courant Number mean: 1.93614e-07 max: 0.134172
deltaT = 1e-10
Time = 1.32e-08

PIMPLE: iteration 1
Selected 0 cells for refinement out of 731010.
Selected 10 split points out of a possible 85850.
Unrefined from 731010 to 730940 cells.
Execution time for mesh.update() = 1.69 s
GAMGPCG:  Solving for pcorr, Initial residual = 1, Final residual = 1.55307e-06, No Iterations 1
GAMGPCG:  Solving for pcorr, Initial residual = 0.00550322, Final residual = 9.58092e-06, No Iterations 3
Corrected phi for Dilation
time step continuity errors : sum local = 1.53697e-21, global = 5.3113e-23, cumulative = 1.80355e-21
Liquid-Vapour State Transition: (Liquid,Vapour): (metal1,metal1vapour)  Boiling Temperature: pair_boil_T [0 0 0 1 0 0 0] 3134K
Liquid-Vapour State Transition: (Liquid,Vapour): (metal2,metal2vapour)  Boiling Temperature: pair_boil_T [0 0 0 1 0 0 0] 2944K
Liquid-Vapour State Transition: (Liquid,Vapour): (metal3,metal3vapour)  Boiling Temperature: pair_boil_T [0 0 0 1 0 0 0] 3186K
Liquid-Vapour State Transition: (Liquid,Vapour): (metal4,metal4vapour)  Boiling Temperature: pair_boil_T [0 0 0 1 0 0 0] 4912K
MULES: Solving for alpha.metal1
metal1 volume fraction, min, max = 0.0733638 -7.46542e-19 0.685
MULES: Solving for alpha.metal1vapour
metal1vapour volume fraction, min, max = 2.44581e-05 -8.39583e-20 0.37373
MULES: Solving for alpha.metal2
metal2 volume fraction, min, max = 0.0182071 -1.98731e-19 0.17
MULES: Solving for alpha.metal2vapour
metal2vapour volume fraction, min, max = 1.0075e-05 -3.8595e-20 0.146193
MULES: Solving for alpha.metal3
metal3 volume fraction, min, max = 0.012852 -1.38507e-19 0.12
MULES: Solving for alpha.metal3vapour
metal3vapour volume fraction, min, max = 3.39364e-06 -1.38767e-20 0.0525292
MULES: Solving for alpha.metal4
metal4 volume fraction, min, max = 0.00267751 -2.86034e-20 0.025
MULES: Solving for alpha.metal4vapour
metal4vapour volume fraction, min, max = 2.58737e-07 -4.03812e-22 0.00841173
MULES: Solving for alpha.air
air volume fraction, min, max = 0.892857 -4.3562e-69 1.33903
Phase-sum volume fraction, min, max = 0.999995 0.000268138 1.33903
Phase pair (liquid + vapor) masses in domain:
    metal1 + metal1vapour: 5.17327e-08 kg (liquid: 5.17327e-08 kg, vapor: 6.38946e-15 kg)
    metal2 + metal2vapour: 1.17294e-08 kg (liquid: 1.17294e-08 kg, vapor: 2.45414e-15 kg)
    metal3 + metal3vapour: 1.02525e-08 kg (liquid: 1.02525e-08 kg, vapor: 7.89945e-16 kg)
    metal4 + metal4vapour: 2.46622e-09 kg (liquid: 2.46622e-09 kg, vapor: 1.01231e-16 kg)
    air: 1.28127e-10 kg
diagonal:  Solving for rho, Initial residual = 0, Final residual = 0, No Iterations 0
Updating deposition
Laser: laser0
    mean position = (0 -2e-05 0)
    power = 0
    position including any oscillation = (0 -2e-05 0)
    Perturbation vector for ray seed points = (0 3.95285e-14 -3.95285e-14)
nRadial: 50
nAngular: 360
    Total rays: 18000, local particles: 0
    Total Q deposited: 0
smoothSolver:  Solving for Ux, Initial residual = 1.66537e-06, Final residual = 1.26906e-10, No Iterations 1
smoothSolver:  Solving for Uy, Initial residual = 6.84792e-10, Final residual = 6.84792e-10, No Iterations 0
smoothSolver:  Solving for Uz, Initial residual = 4.61986e-08, Final residual = 3.75324e-12, No Iterations 1
smoothSolver:  Solving for T, Initial residual = 0.000182246, Final residual = 3.97737e-09, No Iterations 7
Correcting epsilon1, mean residual = 7.69489e-07, max residual = 0.11087
smoothSolver:  Solving for T, Initial residual = 9.34741e-06, Final residual = 8.11267e-09, No Iterations 1
Correcting epsilon1, mean residual = 2.59164e-08, max residual = 0.00457719
smoothSolver:  Solving for T, Initial residual = 3.22805e-07, Final residual = 9.17363e-10, No Iterations 1
Correcting epsilon1, mean residual = 8.28097e-10, max residual = 0.000310781
smoothSolver:  Solving for T, Initial residual = 1.07699e-08, Final residual = 2.15269e-10, No Iterations 1
Correcting epsilon1, mean residual = 3.69329e-11, max residual = 3.28116e-05
smoothSolver:  Solving for T, Initial residual = 6.63813e-10, Final residual = 6.63813e-10, No Iterations 0
Correcting epsilon1, mean residual = 3.55374e-11, max residual = 3.15718e-05
smoothSolver:  Solving for T, Initial residual = 1.09542e-09, Final residual = 1.09542e-09, No Iterations 0
Correcting epsilon1, mean residual = 3.41947e-11, max residual = 3.03789e-05
smoothSolver:  Solving for T, Initial residual = 1.51072e-09, Final residual = 1.51072e-09, No Iterations 0
Correcting epsilon1, mean residual = 3.29027e-11, max residual = 2.92311e-05
smoothSolver:  Solving for T, Initial residual = 1.91032e-09, Final residual = 1.91032e-09, No Iterations 0
Correcting epsilon1, mean residual = 3.16595e-11, max residual = 2.81266e-05
smoothSolver:  Solving for T, Initial residual = 2.29483e-09, Final residual = 2.29483e-09, No Iterations 0
Correcting epsilon1, mean residual = 3.04632e-11, max residual = 2.70638e-05
smoothSolver:  Solving for T, Initial residual = 2.66481e-09, Final residual = 2.66481e-09, No Iterations 0
Correcting epsilon1, mean residual = 2.93122e-11, max residual = 2.60412e-05
smoothSolver:  Solving for T, Initial residual = 3.02081e-09, Final residual = 3.02081e-09, No Iterations 0
Correcting epsilon1, mean residual = 2.82047e-11, max residual = 2.50573e-05
smoothSolver:  Solving for T, Initial residual = 3.36336e-09, Final residual = 3.36336e-09, No Iterations 0
Correcting epsilon1, mean residual = 2.7139e-11, max residual = 2.41105e-05
smoothSolver:  Solving for T, Initial residual = 3.69296e-09, Final residual = 3.69296e-09, No Iterations 0
Correcting epsilon1, mean residual = 2.61135e-11, max residual = 2.31995e-05
smoothSolver:  Solving for T, Initial residual = 4.01012e-09, Final residual = 4.01012e-09, No Iterations 0
Correcting epsilon1, mean residual = 2.51269e-11, max residual = 2.23229e-05
smoothSolver:  Solving for T, Initial residual = 4.31528e-09, Final residual = 4.31528e-09, No Iterations 0
Correcting epsilon1, mean residual = 2.41775e-11, max residual = 2.14795e-05
smoothSolver:  Solving for T, Initial residual = 4.60892e-09, Final residual = 4.60892e-09, No Iterations 0
Correcting epsilon1, mean residual = 2.32639e-11, max residual = 2.06679e-05
smoothSolver:  Solving for T, Initial residual = 4.89147e-09, Final residual = 4.89147e-09, No Iterations 0
Correcting epsilon1, mean residual = 2.23849e-11, max residual = 1.98869e-05
smoothSolver:  Solving for T, Initial residual = 5.16333e-09, Final residual = 5.16333e-09, No Iterations 0
Correcting epsilon1, mean residual = 2.15391e-11, max residual = 1.91355e-05
smoothSolver:  Solving for T, Initial residual = 5.42493e-09, Final residual = 5.42493e-09, No Iterations 0
Correcting epsilon1, mean residual = 2.07253e-11, max residual = 1.84125e-05
smoothSolver:  Solving for T, Initial residual = 5.67664e-09, Final residual = 5.67664e-09, No Iterations 0
Correcting epsilon1, mean residual = 1.99422e-11, max residual = 1.77168e-05
smoothSolver:  Solving for T, Initial residual = 5.91884e-09, Final residual = 5.91884e-09, No Iterations 0
Correcting epsilon1, mean residual = 1.91887e-11, max residual = 1.70474e-05
GAMG:  Solving for p_rgh, Initial residual = 1.82587e-05, Final residual = 4.79016e-11, No Iterations 1
GAMG:  Solving for p_rgh, Initial residual = 3.91792e-09, Final residual = 3.91792e-09, No Iterations 0
max(U) 3104.45
min(p_rgh) 999.971
min(T) 296.572
GAMG:  Solving for p_rgh, Initial residual = 2.08398e-05, Final residual = 4.34215e-08, No Iterations 1
[8] [stack trace]
[8] =============
[8] #1  Foam::sigFpe::sigHandler(int) in /opt/software/RI/rhel/apps/gcc/openfoam/v2506/OpenFOAM-v2506/platforms/linux64GccDPInt32Opt/lib/libOpenFOAM.so
[8] #2  ? in /lib64/libc.so.6
[8] #3  Foam::GAMGSolver::scale(Foam::Field<double>&, Foam::Field<double>&, Foam::lduMatrix const&, Foam::FieldField<Foam::Field, double> const&, Foam::UPtrList<Foam::lduInterfaceField const> const&, Foam::Field<double> const&, unsigned char) const in /opt/software/RI/rhel/apps/gcc/openfoam/v2506/OpenFOAM-v2506/platforms/linux64GccDPInt32Opt/lib/libOpenFOAM.so
[8] #4  Foam::GAMGSolver::Vcycle(Foam::PtrList<Foam::lduMatrix::smoother> const&, Foam::Field<double>&, Foam::Field<double> const&, Foam::Field<double>&, Foam::Field<double>&, Foam::Field<double>&, Foam::Field<double>&, Foam::Field<double>&, Foam::PtrList<Foam::Field<double> >&, Foam::PtrList<Foam::Field<double> >&, unsigned char) const in /opt/software/RI/rhel/apps/gcc/openfoam/v2506/OpenFOAM-v2506/platforms/linux64GccDPInt32Opt/lib/libOpenFOAM.so
[8] #5  Foam::GAMGSolver::solve(Foam::Field<double>&, Foam::Field<double> const&, unsigned char) const in /opt/software/RI/rhel/apps/gcc/openfoam/v2506/OpenFOAM-v2506/platforms/linux64GccDPInt32Opt/lib/libOpenFOAM.so
[8] #6  Foam::fvMatrix<double>::solveSegregated(Foam::dictionary const&) in /opt/software/RI/rhel/apps/gcc/openfoam/v2506/OpenFOAM-v2506/platforms/linux64GccDPInt32Opt/lib/libfiniteVolume.so
[8] #7  Foam::fvMatrix<double>::solveSegregatedOrCoupled(Foam::dictionary const&) in /opt/software/RI/rhel/apps/gcc/openfoam/v2506/OpenFOAM-v2506/platforms/linux64GccDPInt32Opt/lib/libfiniteVolume.so
[8] #8  Foam::fvMesh::solve(Foam::fvMatrix<double>&, Foam::dictionary const&) const in /opt/software/RI/rhel/apps/gcc/openfoam/v2506/OpenFOAM-v2506/platforms/linux64GccDPInt32Opt/lib/libfiniteVolume.so
[8] #9  ? in ~/OpenFOAM/g05228sr-v2506/platforms/linux64GccDPInt32Opt/bin/compressiblelaserbeamFoam
[8] #10  ? in /lib64/libc.so.6
[8] #11  __libc_start_main in /lib64/libc.so.6
[8] #12  ? in ~/OpenFOAM/g05228sr-v2506/platforms/linux64GccDPInt32Opt/bin/compressiblelaserbeamFoam
[8] =============
[node015:1340207:0:1340207] Caught signal 8 (Floating point exception: tkill(2) or tgkill(2))
==== backtrace (tid:1340207) ====
 0 0x0000000000054db0 __GI___sigaction()  :0
 1 0x00000000000a154c __pthread_kill_implementation()  ???:0
 2 0x0000000000054d06 __GI_raise()  :0
 3 0x0000000000054db0 __GI___sigaction()  :0
 4 0x0000000000795714 Foam::GAMGSolver::scale()  ???:0
 5 0x000000000079831d Foam::GAMGSolver::Vcycle()  ???:0
 6 0x0000000000798ff4 Foam::GAMGSolver::solve()  ???:0
 7 0x00000000015f6f34 Foam::fvMatrix<double>::solveSegregated()  ???:0
 8 0x0000000000a6964f Foam::fvMatrix<double>::solveSegregatedOrCoupled()  ???:0
 9 0x00000000009fe9af Foam::fvMesh::solve()  ???:0
10 0x0000000000448898 main()  ???:0
11 0x000000000003feb0 __libc_start_call_main()  ???:0
12 0x000000000003ff60 __libc_start_main_alias_2()  :0
13 0x000000000044ec55 _start()  ???:0
=================================
[node015:1340207] *** Process received signal ***
[node015:1340207] Signal: Floating point exception (8)
[node015:1340207] Signal code:  (-6)
[node015:1340207] Failing at address: 0xb0ffa0014732f
[node015:1340207] [ 0] /lib64/libc.so.6(+0x54db0)[0x14ac1e854db0]
[node015:1340207] [ 1] /lib64/libc.so.6(+0xa154c)[0x14ac1e8a154c]
[node015:1340207] [ 2] /lib64/libc.so.6(raise+0x16)[0x14ac1e854d06]
[node015:1340207] [ 3] /lib64/libc.so.6(+0x54db0)[0x14ac1e854db0]
[node015:1340207] [ 4] /opt/software/RI/rhel/apps/gcc/openfoam/v2506/OpenFOAM-v2506/platforms/linux64GccDPInt32Opt/lib/libOpenFOAM.so(_ZNK4Foam10GAMGSolver5scaleERNS_5FieldIdEES3_RKNS_9lduMatrixERKNS_10FieldFieldIS1_dEERKNS_8UPtrListIKNS_17lduInterfaceFieldEEERKS2_h+0xb4)[0x14ac1f529714]
[node015:1340207] [ 5] /opt/software/RI/rhel/apps/gcc/openfoam/v2506/OpenFOAM-v2506/platforms/linux64GccDPInt32Opt/lib/libOpenFOAM.so(_ZNK4Foam10GAMGSolver6VcycleERKNS_7PtrListINS_9lduMatrix8smootherEEERNS_5FieldIdEERKS8_S9_S9_S9_S9_S9_RNS1_IS8_EESD_h+0x1abd)[0x14ac1f52c31d]
[node015:1340207] [ 6] /opt/software/RI/rhel/apps/gcc/openfoam/v2506/OpenFOAM-v2506/platforms/linux64GccDPInt32Opt/lib/libOpenFOAM.so(_ZNK4Foam10GAMGSolver5solveERNS_5FieldIdEERKS2_h+0x514)[0x14ac1f52cff4]
[node015:1340207] [ 7] /opt/software/RI/rhel/apps/gcc/openfoam/v2506/OpenFOAM-v2506/platforms/linux64GccDPInt32Opt/lib/libfiniteVolume.so(_ZN4Foam8fvMatrixIdE15solveSegregatedERKNS_10dictionaryE+0x514)[0x14ac23cc9f34]
[node015:1340207] [ 8] /opt/software/RI/rhel/apps/gcc/openfoam/v2506/OpenFOAM-v2506/platforms/linux64GccDPInt32Opt/lib/libfiniteVolume.so(_ZN4Foam8fvMatrixIdE24solveSegregatedOrCoupledERKNS_10dictionaryE+0x39f)[0x14ac2313c64f]
[node015:1340207] [ 9] /opt/software/RI/rhel/apps/gcc/openfoam/v2506/OpenFOAM-v2506/platforms/linux64GccDPInt32Opt/lib/libfiniteVolume.so(_ZNK4Foam6fvMesh5solveERNS_8fvMatrixIdEERKNS_10dictionaryE+0xf)[0x14ac230d19af]
[node015:1340207] [10] compressiblelaserbeamFoam[0x448898]
[node015:1340207] [11] /lib64/libc.so.6(+0x3feb0)[0x14ac1e83feb0]
[node015:1340207] [12] /lib64/libc.so.6(__libc_start_main+0x80)[0x14ac1e83ff60]
[node015:1340207] [13] compressiblelaserbeamFoam[0x44ec55]
[node015:1340207] *** End of error message ***
--------------------------------------------------------------------------
Primary job  terminated normally, but 1 process returned
a non-zero exit code. Per user-direction, the job has been aborted.
--------------------------------------------------------------------------
--------------------------------------------------------------------------
mpirun noticed that process rank 8 with PID 1340207 on node node015 exited on signal 8 (Floating point exception).
--------------------------------------------------------------------------
Run finished: Fri Mar 20 00:48:55 GMT 2026
